data_image0
_chemical_formula_structural       Ag14P4O16
_chemical_formula_sum              "Ag14 P4 O16"
_cell_length_a       6.119910333474266
_cell_length_b       8.654860194106556
_cell_length_c       30.292010679372957
_cell_angle_alpha    90.0
_cell_angle_beta     90.0
_cell_angle_gamma    90.0

_space_group_name_H-M_alt    "P 1"
_space_group_IT_number       1

loop_
  _space_group_symop_operation_xyz
  'x, y, z'

loop_
  _atom_site_type_symbol
  _atom_site_label
  _atom_site_symmetry_multiplicity
  _atom_site_fract_x
  _atom_site_fract_y
  _atom_site_fract_z
  _atom_site_occupancy
  Ag  Ag1       1.0  0.7500000000000001  0.19107630477458934  0.29464285714285715  1.0000
  Ag  Ag2       1.0  0.25000000000000006  0.19107630477458934  0.29464285714285715  1.0000
  Ag  Ag3       1.0  0.49999999999999983  0.3160763047745891  0.40178571428571436  1.0000
  Ag  Ag4       1.0  7.532271976891238e-17  0.06607630477458937  0.40178571428571436  1.0000
  Ag  Ag5       1.0  0.5000000000000001  0.5660763047745891  0.33035714285714285  1.0000
  Ag  Ag6       1.0  6.193201403221684e-17  0.8160763047745891  0.3303571428571429  1.0000
  Ag  Ag7       1.0  0.75  0.691076304774589  0.4375  1.0000
  Ag  Ag8       1.0  0.2500000000000001  0.691076304774589  0.4375  1.0000
  Ag  Ag9       1.0  0.5  0.8160763047745886  0.5446428571428571  1.0000
  Ag  Ag10      1.0  1.0210413124230343e-16  0.5660763047745889  0.5446428571428572  1.0000
  Ag  Ag11      1.0  0.5000000000000001  0.0660763047745887  0.4732142857142857  1.0000
  Ag  Ag12      1.0  8.871342550560791e-17  0.31607630477458887  0.47321428571428575  1.0000
  Ag  Ag13      1.0  0.75  0.19107630477458848  0.5803571428571429  1.0000
  Ag  Ag14      1.0  0.25000000000000017  0.19107630477458848  0.5803571428571429  1.0000
  P   P1        1.0  0.5000000000000002  0.941076304774589  0.3660714285714286  1.0000
  P   P2        1.0  6.862736690056459e-17  0.4410763047745892  0.3660714285714286  1.0000
  P   P3        1.0  0.5000000000000002  0.4410763047745887  0.5089285714285714  1.0000
  P   P4        1.0  9.540877837395561e-17  0.941076304774589  0.5089285714285714  1.0000
  O   O1        1.0  0.1479052888592904  0.4410763047745892  0.4083300825312258  1.0000
  O   O2        1.0  0.3520947111407097  0.08898159363387959  0.3660714285714286  1.0000
  O   O3        1.0  0.3520947111407097  0.7931710159152988  0.3660714285714286  1.0000
  O   O4        1.0  0.6479052888592904  0.941076304774589  0.3238127746116313  1.0000
  O   O5        1.0  0.6479052888592906  0.9410763047745893  0.4083300825312258  1.0000
  O   O6        1.0  0.14790528885929036  0.44107630477458915  0.3238127746116313  1.0000
  O   O7        1.0  0.8520947111407098  0.5889815936338795  0.3660714285714286  1.0000
  O   O8        1.0  0.8520947111407098  0.29317101591529865  0.3660714285714286  1.0000
  O   O9        1.0  0.1479052888592904  0.9410763047745884  0.5511872253883685  1.0000
  O   O10       1.0  0.3520947111407097  0.5889815936338791  0.5089285714285715  1.0000
  O   O11       1.0  0.3520947111407097  0.2931710159152985  0.5089285714285715  1.0000
  O   O12       1.0  0.6479052888592907  0.44107630477458876  0.4666699174687742  1.0000
  O   O13       1.0  0.6479052888592907  0.44107630477458903  0.5511872253883687  1.0000
  O   O14       1.0  0.14790528885929038  0.941076304774589  0.4666699174687742  1.0000
  O   O15       1.0  0.8520947111407097  0.08898159363387936  0.5089285714285714  1.0000
  O   O16       1.0  0.8520947111407098  0.7931710159152985  0.5089285714285714  1.0000
