data_image0
_chemical_formula_structural       Ag56P28O122
_chemical_formula_sum              "Ag56 P28 O122"
_cell_length_a       10.91737588
_cell_length_b       12.0141395
_cell_length_c       41.809615889999996
_cell_angle_alpha    90.0
_cell_angle_beta     90.0
_cell_angle_gamma    90.0

_space_group_name_H-M_alt    "P 1"
_space_group_IT_number       1

loop_
  _space_group_symop_operation_xyz
  'x, y, z'

loop_
  _atom_site_type_symbol
  _atom_site_label
  _atom_site_symmetry_multiplicity
  _atom_site_fract_x
  _atom_site_fract_y
  _atom_site_fract_z
  _atom_site_occupancy
  Ag  Ag1       1.0  0.7679005700000043  0.1548547099999963  0.32265209895688485  1.0000
  Ag  Ag2       1.0  0.23209942999999567  0.15485470999999632  0.3263681118140279  1.0000
  Ag  Ag3       1.0  0.7320994299999956  0.654854729999997  0.25122352181402746  1.0000
  Ag  Ag4       1.0  0.2679005700000045  0.654854729999997  0.25493954181402845  1.0000
  Ag  Ag5       1.0  0.23528554999999698  0.8162213699999988  0.32602988609974215  1.0000
  Ag  Ag6       1.0  0.76471449  0.8162213699999988  0.3229903203854577  1.0000
  Ag  Ag7       1.0  0.26471445000000315  0.3162213899999996  0.2546013146711696  1.0000
  Ag  Ag8       1.0  0.73528551  0.3162213899999996  0.2515617489568862  1.0000
  Ag  Ag9       1.0  7.629027846570139e-17  0.9826896600000359  0.3245101032425993  1.0000
  Ag  Ag10      1.0  0.4999999999999999  0.4826896200000009  0.253081531814028  1.0000
  Ag  Ag11      1.0  7.451405566151531e-17  0.6771063399999974  0.3245101032425993  1.0000
  Ag  Ag12      1.0  0.4999999999999999  0.17710633999999753  0.253081531814028  1.0000
  Ag  Ag13      1.0  7.552894084287974e-17  0.3028537699999988  0.3245101032425993  1.0000
  Ag  Ag14      1.0  0.4999999999999999  0.8028538300000012  0.253081531814028  1.0000
  Ag  Ag15      1.0  6.195481720466276e-17  0.4861136700000029  0.253081531814028  1.0000
  Ag  Ag16      1.0  0.4999999999999999  0.9861136299999997  0.3245101032425993  1.0000
  Ag  Ag17      1.0  0.7679005700000043  0.15485470999999634  0.46550924181402764  1.0000
  Ag  Ag18      1.0  0.2320994299999957  0.15485470999999634  0.46922525467117066  1.0000
  Ag  Ag19      1.0  0.7320994299999956  0.6548547299999972  0.3940806646711702  1.0000
  Ag  Ag20      1.0  0.26790057000000456  0.6548547299999972  0.39779668467117124  1.0000
  Ag  Ag21      1.0  0.23528554999999704  0.8162213699999988  0.468887028956885  1.0000
  Ag  Ag22      1.0  0.76471449  0.8162213699999988  0.46584746324260046  1.0000
  Ag  Ag23      1.0  0.26471445000000315  0.31622138999999966  0.39745845752831244  1.0000
  Ag  Ag24      1.0  0.73528551  0.31622138999999966  0.394418891814029  1.0000
  Ag  Ag25      1.0  1.1292911955688123e-16  0.9826896600000359  0.46736724609974206  1.0000
  Ag  Ag26      1.0  0.4999999999999999  0.4826896200000009  0.3959386746711708  1.0000
  Ag  Ag27      1.0  1.111528967526952e-16  0.6771063399999974  0.46736724609974206  1.0000
  Ag  Ag28      1.0  0.4999999999999999  0.1771063399999976  0.3959386746711708  1.0000
  Ag  Ag29      1.0  1.121677819340596e-16  0.30285376999999886  0.46736724609974206  1.0000
  Ag  Ag30      1.0  0.4999999999999999  0.8028538300000013  0.39593867467117067  1.0000
  Ag  Ag31      1.0  9.859365829584265e-17  0.48611367000000294  0.3959386746711708  1.0000
  Ag  Ag32      1.0  0.4999999999999999  0.9861136299999997  0.46736724609974206  1.0000
  Ag  Ag33      1.0  0.7679005700000043  0.15485470999999637  0.6083663846711703  1.0000
  Ag  Ag34      1.0  0.2320994299999957  0.15485470999999637  0.6120823975283136  1.0000
  Ag  Ag35      1.0  0.7320994299999956  0.6548547299999972  0.536937807528313  1.0000
  Ag  Ag36      1.0  0.26790057000000456  0.6548547299999972  0.540653827528314  1.0000
  Ag  Ag37      1.0  0.23528554999999707  0.8162213699999988  0.611744171814028  1.0000
  Ag  Ag38      1.0  0.76471449  0.8162213699999988  0.6087046060997433  1.0000
  Ag  Ag39      1.0  0.26471445000000315  0.31622138999999966  0.5403156003854552  1.0000
  Ag  Ag40      1.0  0.73528551  0.31622138999999966  0.5372760346711718  1.0000
  Ag  Ag41      1.0  1.4956796064806112e-16  0.9826896600000359  0.6102243889568849  1.0000
  Ag  Ag42      1.0  0.4999999999999999  0.4826896200000009  0.5387958175283136  1.0000
  Ag  Ag43      1.0  1.4779173784387508e-16  0.6771063399999974  0.610224388956885  1.0000
  Ag  Ag44      1.0  0.4999999999999999  0.17710633999999761  0.5387958175283136  1.0000
  Ag  Ag45      1.0  1.3964691275244449e-16  0.30285376999999886  0.610224388956885  1.0000
  Ag  Ag46      1.0  0.4999999999999999  0.8028538300000013  0.5387958175283136  1.0000
  Ag  Ag47      1.0  1.2607278911422754e-16  0.48611367000000294  0.5387958175283136  1.0000
  Ag  Ag48      1.0  0.49999999999999994  0.9861136299999997  0.6102243889568849  1.0000
  Ag  Ag49      1.0  0.7320994299999956  0.6548547299999972  0.6797949503854559  1.0000
  Ag  Ag50      1.0  0.2679005700000046  0.6548547299999972  0.6835109703854569  1.0000
  Ag  Ag51      1.0  0.26471445000000327  0.3162213899999997  0.6831727432425982  1.0000
  Ag  Ag52      1.0  0.73528551  0.3162213899999997  0.6801331775283147  1.0000
  Ag  Ag53      1.0  0.49999999999999994  0.482689620000001  0.6816529603854563  1.0000
  Ag  Ag54      1.0  0.49999999999999994  0.17710633999999764  0.6816529603854563  1.0000
  Ag  Ag55      1.0  0.49999999999999994  0.8028538300000013  0.6816529603854563  1.0000
  Ag  Ag56      1.0  1.627116302054074e-16  0.48611367000000305  0.6816529603854563  1.0000
  P   P1        1.0  0.2560195500000042  0.9849086599999941  0.2558135275283134  1.0000
  P   P2        1.0  0.7439804999999963  0.9849086599999941  0.25034953609974253  1.0000
  P   P3        1.0  0.24398044999999582  0.48490870000000413  0.327242088956885  1.0000
  P   P4        1.0  0.7560195000000038  0.48490870000000413  0.32177810752831393  1.0000
  P   P5        1.0  6.462931017082815e-17  0.83916711999998  0.253081531814028  1.0000
  P   P6        1.0  0.4999999999999999  0.3391671199999966  0.3245101032425993  1.0000
  P   P7        1.0  5.961811823227206e-17  0.13111926000000254  0.253081531814028  1.0000
  P   P8        1.0  0.4999999999999999  0.6311192400000017  0.3245101032425993  1.0000
  P   P9        1.0  0.2560195500000043  0.9849086599999941  0.3986706703854562  1.0000
  P   P10       1.0  0.7439804999999963  0.9849086599999941  0.3932066789568854  1.0000
  P   P11       1.0  0.24398044999999582  0.48490870000000424  0.47009923181402774  1.0000
  P   P12       1.0  0.7560195000000038  0.48490870000000424  0.46463525038545667  1.0000
  P   P13       1.0  9.210844098921307e-17  0.83916711999998  0.3959386746711708  1.0000
  P   P14       1.0  0.49999999999999994  0.3391671199999967  0.46736724609974206  1.0000
  P   P15       1.0  9.625695932345191e-17  0.13111926000000257  0.3959386746711708  1.0000
  P   P16       1.0  0.4999999999999999  0.6311192400000017  0.46736724609974206  1.0000
  P   P17       1.0  0.2560195500000043  0.9849086599999941  0.5415278132425989  1.0000
  P   P18       1.0  0.7439804999999963  0.9849086599999941  0.5360638218140282  1.0000
  P   P19       1.0  0.24398044999999585  0.48490870000000424  0.6129563746711707  1.0000
  P   P20       1.0  0.7560195000000038  0.48490870000000424  0.6074923932425995  1.0000
  P   P21       1.0  1.2874728208039292e-16  0.83916711999998  0.5387958175283136  1.0000
  P   P22       1.0  0.49999999999999994  0.3391671199999967  0.6102243889568849  1.0000
  P   P23       1.0  1.237360901418368e-16  0.1311192600000026  0.5387958175283136  1.0000
  P   P24       1.0  0.49999999999999994  0.6311192400000017  0.6102243889568849  1.0000
  P   P25       1.0  0.25601955000000437  0.9849086599999941  0.6843849560997419  1.0000
  P   P26       1.0  0.7439804999999963  0.9849086599999941  0.6789209646711709  1.0000
  P   P27       1.0  1.6538612317157281e-16  0.83916711999998  0.6816529603854563  1.0000
  P   P28       1.0  1.603749312330167e-16  0.13111926000000262  0.6816529603854563  1.0000
  O   O1        1.0  0.36145738000000044  0.5970751399999974  0.20866625467116967  1.0000
  O   O2        1.0  0.6385426199999996  0.5970751399999975  0.29749681181402793  1.0000
  O   O3        1.0  0.1385426099999957  0.09707508000000338  0.2800948232425994  1.0000
  O   O4        1.0  0.861457430000001  0.09707508000000337  0.22606823752831479  1.0000
  O   O5        1.0  0.3626455299999985  0.3733371799999992  0.20894488181402718  1.0000
  O   O6        1.0  0.6373544700000013  0.3733371799999992  0.2972181875283146  1.0000
  O   O7        1.0  0.1373544599999978  0.8733371399999975  0.2803734532425986  1.0000
  O   O8        1.0  0.8626455700000042  0.8733371399999974  0.22578961038545728  1.0000
  O   O9        1.0  0.4222591100000031  0.7246024800000033  0.29759629752831296  1.0000
  O   O10       1.0  0.5777408899999968  0.7246024800000033  0.20856677181402883  1.0000
  O   O11       1.0  0.07774089999999986  0.22460257999999916  0.2261677289568857  1.0000
  O   O12       1.0  0.9222590699999786  0.22460257999999916  0.27999533752831424  1.0000
  O   O13       1.0  0.4211991300000013  0.2453017699999988  0.2979075918140281  1.0000
  O   O14       1.0  0.5788008699999986  0.2453017699999988  0.20825547181402773  1.0000
  O   O15       1.0  0.07880085000000021  0.7453017499999979  0.22647902895688432  1.0000
  O   O16       1.0  0.9211991699999981  0.745301749999998  0.2796840432425992  1.0000
  O   O17       1.0  0.14178302999999856  0.48514682000000087  0.21870527609974227  1.0000
  O   O18       1.0  0.8582170099999984  0.48514682000000087  0.2874577960997413  1.0000
  O   O19       1.0  0.3582169700000014  0.9851468600000024  0.29013383895688605  1.0000
  O   O20       1.0  0.6417830299999984  0.9851468600000024  0.21602921609974213  1.0000
  O   O21       1.0  0.41400962999999774  0.4850871199999967  0.30256118895688616  1.0000
  O   O22       1.0  0.5859903700000023  0.4850871199999967  0.3464590132425993  1.0000
  O   O23       1.0  0.08599038999999975  0.9850870800000282  0.2311326118140289  1.0000
  O   O24       1.0  0.9140096299999978  0.9850870800000282  0.2750304389568843  1.0000
  O   O25       1.0  0.18597763000000336  0.5986921799999992  0.30283997324259854  1.0000
  O   O26       1.0  0.8140223400000037  0.5986921799999992  0.34618023324259944  1.0000
  O   O27       1.0  0.31402239000000437  0.09869211999999672  0.23141140181402706  1.0000
  O   O28       1.0  0.6859776099999957  0.09869211999999672  0.27475166181402877  1.0000
  O   O29       1.0  0.1890941300000015  0.3676476500000021  0.3034243403854558  1.0000
  O   O30       1.0  0.8109058399999964  0.3676476500000021  0.3455958603854565  1.0000
  O   O31       1.0  0.3109058800000024  0.8676476100000337  0.23199577467117027  1.0000
  O   O32       1.0  0.6890941199999976  0.8676476100000338  0.2741672889568855  1.0000
  O   O33       1.0  0.36145738000000044  0.5970751399999975  0.35152339752831246  1.0000
  O   O34       1.0  0.6385426199999996  0.5970751399999975  0.4403539546711708  1.0000
  O   O35       1.0  0.1385426099999958  0.0970750800000034  0.4229519660997422  1.0000
  O   O36       1.0  0.861457430000001  0.0970750800000034  0.36892538038545764  1.0000
  O   O37       1.0  0.3626455299999985  0.3733371799999992  0.35180202467116994  1.0000
  O   O38       1.0  0.6373544700000013  0.37333717999999927  0.4400753303854575  1.0000
  O   O39       1.0  0.13735445999999782  0.8733371399999975  0.4232305960997414  1.0000
  O   O40       1.0  0.8626455700000042  0.8733371399999975  0.36864675324260004  1.0000
  O   O41       1.0  0.4222591100000032  0.7246024800000033  0.44045344038545586  1.0000
  O   O42       1.0  0.5777408899999968  0.7246024800000033  0.3514239146711717  1.0000
  O   O43       1.0  0.0777408999999999  0.22460257999999922  0.36902487181402854  1.0000
  O   O44       1.0  0.9222590699999786  0.22460257999999922  0.42285248038545703  1.0000
  O   O45       1.0  0.42119913000000136  0.2453017699999988  0.4407647346711709  1.0000
  O   O46       1.0  0.5788008699999986  0.2453017699999988  0.3511126146711705  1.0000
  O   O47       1.0  0.07880085000000024  0.745301749999998  0.36933617181402717  1.0000
  O   O48       1.0  0.9211991699999981  0.745301749999998  0.42254118609974184  1.0000
  O   O49       1.0  0.1417830299999986  0.48514682000000087  0.3615624189568851  1.0000
  O   O50       1.0  0.8582170099999984  0.48514682000000087  0.43031493895688394  1.0000
  O   O51       1.0  0.3582169700000015  0.9851468600000024  0.4329909818140288  1.0000
  O   O52       1.0  0.6417830299999985  0.9851468600000024  0.35888635895688503  1.0000
  O   O53       1.0  0.41400962999999785  0.48508711999999676  0.44541833181402907  1.0000
  O   O54       1.0  0.5859903700000023  0.48508711999999676  0.48931615609974216  1.0000
  O   O55       1.0  0.08599038999999978  0.9850870800000282  0.37398975467117174  1.0000
  O   O56       1.0  0.9140096299999978  0.9850870800000282  0.41788758181402696  1.0000
  O   O57       1.0  0.1859776300000034  0.5986921799999992  0.4456971160997414  1.0000
  O   O58       1.0  0.8140223400000037  0.5986921799999992  0.4890373760997421  1.0000
  O   O59       1.0  0.3140223900000044  0.09869211999999675  0.3742685446711699  1.0000
  O   O60       1.0  0.6859776099999957  0.09869211999999675  0.4176088046711715  1.0000
  O   O61       1.0  0.18909413000000153  0.3676476500000021  0.44628148324259853  1.0000
  O   O62       1.0  0.8109058399999964  0.3676476500000021  0.4884530032425991  1.0000
  O   O63       1.0  0.3109058800000024  0.8676476100000338  0.3748529175283131  1.0000
  O   O64       1.0  0.6890941199999976  0.8676476100000338  0.41702443181402826  1.0000
  O   O65       1.0  0.36145738000000055  0.5970751399999975  0.49438054038545537  1.0000
  O   O66       1.0  0.6385426199999996  0.5970751399999975  0.5832110975283136  1.0000
  O   O67       1.0  0.1385426099999958  0.09707508000000344  0.5658091089568851  1.0000
  O   O68       1.0  0.861457430000001  0.09707508000000344  0.5117825232426005  1.0000
  O   O69       1.0  0.3626455299999986  0.37333717999999927  0.49465916752831285  1.0000
  O   O70       1.0  0.6373544700000013  0.37333717999999927  0.5829324732426003  1.0000
  O   O71       1.0  0.13735445999999787  0.8733371399999975  0.5660877389568842  1.0000
  O   O72       1.0  0.8626455700000042  0.8733371399999975  0.511503896099743  1.0000
  O   O73       1.0  0.4222591100000032  0.7246024800000033  0.5833105832425985  1.0000
  O   O74       1.0  0.5777408899999968  0.7246024800000033  0.49428105752831436  1.0000
  O   O75       1.0  0.07774089999999995  0.22460257999999925  0.5118820146711713  1.0000
  O   O76       1.0  0.9222590699999786  0.22460257999999925  0.5657096232426  1.0000
  O   O77       1.0  0.42119913000000136  0.24530176999999886  0.5836218775283137  1.0000
  O   O78       1.0  0.5788008699999986  0.24530176999999886  0.4939697575283134  1.0000
  O   O79       1.0  0.07880085000000028  0.745301749999998  0.51219331467117  1.0000
  O   O80       1.0  0.9211991699999981  0.745301749999998  0.5653983289568848  1.0000
  O   O81       1.0  0.1417830299999986  0.48514682000000087  0.5044195618140279  1.0000
  O   O82       1.0  0.8582170099999984  0.48514682000000087  0.5731720818140269  1.0000
  O   O83       1.0  0.3582169700000015  0.9851468600000024  0.5758481246711716  1.0000
  O   O84       1.0  0.6417830299999985  0.9851468600000024  0.5017435018140277  1.0000
  O   O85       1.0  0.41400962999999785  0.48508711999999676  0.5882754746711718  1.0000
  O   O86       1.0  0.5859903700000023  0.48508711999999676  0.6321732989568851  1.0000
  O   O87       1.0  0.08599038999999982  0.9850870800000282  0.5168468975283146  1.0000
  O   O88       1.0  0.9140096299999978  0.9850870800000282  0.56074472467117  1.0000
  O   O89       1.0  0.1859776300000034  0.5986921799999992  0.5885542589568842  1.0000
  O   O90       1.0  0.8140223400000037  0.5986921799999992  0.6318945189568851  1.0000
  O   O91       1.0  0.3140223900000044  0.09869211999999677  0.5171256875283128  1.0000
  O   O92       1.0  0.6859776099999957  0.09869211999999679  0.5604659475283145  1.0000
  O   O93       1.0  0.18909413000000158  0.3676476500000021  0.5891386260997415  1.0000
  O   O94       1.0  0.8109058399999964  0.3676476500000021  0.6313101460997419  1.0000
  O   O95       1.0  0.3109058800000024  0.8676476100000338  0.517710060385456  1.0000
  O   O96       1.0  0.6890941199999976  0.8676476100000338  0.5598815746711713  1.0000
  O   O97       1.0  0.36145738000000055  0.5970751399999975  0.6372376832425983  1.0000
  O   O98       1.0  0.6385426199999996  0.5970751399999975  0.7260682403854565  1.0000
  O   O99       1.0  0.13854260999999585  0.09707508000000348  0.7086662518140278  1.0000
  O   O100      1.0  0.861457430000001  0.09707508000000345  0.6546396660997433  1.0000
  O   O101      1.0  0.36264552999999866  0.37333717999999927  0.6375163103854556  1.0000
  O   O102      1.0  0.6373544700000013  0.37333717999999927  0.7257896160997432  1.0000
  O   O103      1.0  0.13735445999999787  0.8733371399999975  0.7089448818140272  1.0000
  O   O104      1.0  0.8626455700000042  0.8733371399999975  0.6543610389568857  1.0000
  O   O105      1.0  0.4222591100000032  0.7246024800000033  0.7261677260997412  1.0000
  O   O106      1.0  0.5777408899999968  0.7246024800000033  0.6371382003854573  1.0000
  O   O107      1.0  0.07774089999999997  0.22460257999999927  0.6547391575283144  1.0000
  O   O108      1.0  0.9222590699999786  0.22460257999999927  0.7085667660997429  1.0000
  O   O109      1.0  0.4211991300000015  0.24530176999999892  0.7264790203854564  1.0000
  O   O110      1.0  0.5788008699999986  0.2453017699999989  0.6368269003854562  1.0000
  O   O111      1.0  0.07880085000000031  0.745301749999998  0.6550504575283129  1.0000
  O   O112      1.0  0.9211991699999981  0.745301749999998  0.7082554718140277  1.0000
  O   O113      1.0  0.14178302999999864  0.48514682000000087  0.6472767046711709  1.0000
  O   O114      1.0  0.8582170099999985  0.485146820000001  0.7160292246711698  1.0000
  O   O115      1.0  0.3582169700000016  0.9851468600000024  0.7187052675283143  1.0000
  O   O116      1.0  0.6417830299999985  0.9851468600000024  0.6446006446711706  1.0000
  O   O117      1.0  0.08599038999999985  0.9850870800000282  0.6597040403854573  1.0000
  O   O118      1.0  0.9140096299999978  0.9850870800000282  0.7036018675283127  1.0000
  O   O119      1.0  0.3140223900000044  0.0986921199999968  0.6599828303854555  1.0000
  O   O120      1.0  0.6859776099999957  0.0986921199999968  0.7033230903854572  1.0000
  O   O121      1.0  0.3109058800000025  0.8676476100000338  0.6605672032425989  1.0000
  O   O122      1.0  0.6890941199999976  0.8676476100000338  0.702738717528314  1.0000
