data_image0
_chemical_formula_structural       Ag56P28O114
_chemical_formula_sum              "Ag56 P28 O114"
_cell_length_a       10.91737588
_cell_length_b       12.0141395
_cell_length_c       41.809615889999996
_cell_angle_alpha    90.0
_cell_angle_beta     90.0
_cell_angle_gamma    90.0

_space_group_name_H-M_alt    "P 1"
_space_group_IT_number       1

loop_
  _space_group_symop_operation_xyz
  'x, y, z'

loop_
  _atom_site_type_symbol
  _atom_site_label
  _atom_site_symmetry_multiplicity
  _atom_site_fract_x
  _atom_site_fract_y
  _atom_site_fract_z
  _atom_site_occupancy
  Ag  Ag1       1.0  0.7679005700000043  0.1548547099999963  0.3201868738025099  1.0000
  Ag  Ag2       1.0  0.23209942999999567  0.1548547099999963  0.323902886659653  1.0000
  Ag  Ag3       1.0  0.7320994299999956  0.654854729999997  0.2487582966596525  1.0000
  Ag  Ag4       1.0  0.2679005700000045  0.654854729999997  0.2524743166596535  1.0000
  Ag  Ag5       1.0  0.23528554999999698  0.8162213699999988  0.3235646609453672  1.0000
  Ag  Ag6       1.0  0.76471449  0.8162213699999988  0.32052509523108275  1.0000
  Ag  Ag7       1.0  0.26471445000000315  0.3162213899999996  0.2521360895167947  1.0000
  Ag  Ag8       1.0  0.73528551  0.3162213899999996  0.24909652380251127  1.0000
  Ag  Ag9       1.0  7.629027846570139e-17  0.9826896600000359  0.32204487808822446  1.0000
  Ag  Ag10      1.0  0.4999999999999999  0.4826896200000009  0.250616306659653  1.0000
  Ag  Ag11      1.0  7.451405566151531e-17  0.6771063399999974  0.32204487808822446  1.0000
  Ag  Ag12      1.0  0.4999999999999999  0.17710633999999753  0.250616306659653  1.0000
  Ag  Ag13      1.0  7.552894084287974e-17  0.3028537699999988  0.32204487808822446  1.0000
  Ag  Ag14      1.0  0.4999999999999999  0.8028538300000012  0.250616306659653  1.0000
  Ag  Ag15      1.0  6.195481720466276e-17  0.4861136700000029  0.250616306659653  1.0000
  Ag  Ag16      1.0  0.4999999999999999  0.9861136299999997  0.32204487808822446  1.0000
  Ag  Ag17      1.0  0.7679005700000043  0.15485470999999634  0.4630440166596528  1.0000
  Ag  Ag18      1.0  0.2320994299999957  0.15485470999999634  0.46676002951679574  1.0000
  Ag  Ag19      1.0  0.7320994299999956  0.6548547299999972  0.3916154395167953  1.0000
  Ag  Ag20      1.0  0.26790057000000456  0.6548547299999972  0.3953314595167964  1.0000
  Ag  Ag21      1.0  0.23528554999999704  0.8162213699999988  0.4664218038025101  1.0000
  Ag  Ag22      1.0  0.76471449  0.8162213699999988  0.46338223808822554  1.0000
  Ag  Ag23      1.0  0.26471445000000315  0.31622138999999966  0.3949932323739375  1.0000
  Ag  Ag24      1.0  0.73528551  0.31622138999999966  0.39195366665965414  1.0000
  Ag  Ag25      1.0  1.1292911955688123e-16  0.9826896600000359  0.4649020209453672  1.0000
  Ag  Ag26      1.0  0.4999999999999999  0.4826896200000009  0.39347344951679575  1.0000
  Ag  Ag27      1.0  1.111528967526952e-16  0.6771063399999974  0.4649020209453673  1.0000
  Ag  Ag28      1.0  0.4999999999999999  0.1771063399999976  0.39347344951679575  1.0000
  Ag  Ag29      1.0  1.121677819340596e-16  0.30285376999999886  0.4649020209453673  1.0000
  Ag  Ag30      1.0  0.4999999999999999  0.8028538300000013  0.39347344951679575  1.0000
  Ag  Ag31      1.0  8.943394802304768e-17  0.48611367000000294  0.39347344951679575  1.0000
  Ag  Ag32      1.0  0.4999999999999999  0.9861136299999997  0.4649020209453672  1.0000
  Ag  Ag33      1.0  0.7679005700000043  0.15485470999999637  0.6059011595167956  1.0000
  Ag  Ag34      1.0  0.2320994299999957  0.15485470999999637  0.6096171723739388  1.0000
  Ag  Ag35      1.0  0.7320994299999956  0.6548547299999972  0.5344725823739381  1.0000
  Ag  Ag36      1.0  0.26790057000000456  0.6548547299999972  0.5381886023739392  1.0000
  Ag  Ag37      1.0  0.23528554999999707  0.8162213699999988  0.6092789466596528  1.0000
  Ag  Ag38      1.0  0.76471449  0.8162213699999988  0.6062393809453686  1.0000
  Ag  Ag39      1.0  0.26471445000000315  0.31622138999999966  0.5378503752310804  1.0000
  Ag  Ag40      1.0  0.73528551  0.31622138999999966  0.5348108095167969  1.0000
  Ag  Ag41      1.0  1.4956796064806112e-16  0.9826896600000359  0.6077591638025102  1.0000
  Ag  Ag42      1.0  0.4999999999999999  0.4826896200000009  0.5363305923739388  1.0000
  Ag  Ag43      1.0  1.4779173784387508e-16  0.6771063399999974  0.6077591638025102  1.0000
  Ag  Ag44      1.0  0.4999999999999999  0.17710633999999761  0.5363305923739388  1.0000
  Ag  Ag45      1.0  1.3964691275244449e-16  0.30285376999999886  0.6077591638025102  1.0000
  Ag  Ag46      1.0  0.4999999999999999  0.8028538300000013  0.5363305923739388  1.0000
  Ag  Ag47      1.0  1.2607278911422754e-16  0.48611367000000294  0.5363305923739388  1.0000
  Ag  Ag48      1.0  0.49999999999999994  0.9861136299999997  0.6077591638025102  1.0000
  Ag  Ag49      1.0  0.7320994299999956  0.6548547299999972  0.6773297252310809  1.0000
  Ag  Ag50      1.0  0.2679005700000046  0.6548547299999972  0.6810457452310821  1.0000
  Ag  Ag51      1.0  0.26471445000000327  0.3162213899999997  0.680707518088223  1.0000
  Ag  Ag52      1.0  0.73528551  0.3162213899999997  0.6776679523739398  1.0000
  Ag  Ag53      1.0  0.49999999999999994  0.482689620000001  0.6791877352310814  1.0000
  Ag  Ag54      1.0  0.49999999999999994  0.17710633999999764  0.6791877352310814  1.0000
  Ag  Ag55      1.0  0.49999999999999994  0.8028538300000013  0.6791877352310814  1.0000
  Ag  Ag56      1.0  1.627116302054074e-16  0.48611367000000305  0.6791877352310814  1.0000
  P   P1        1.0  0.2560195500000042  0.9849086599999941  0.25334830237393846  1.0000
  P   P2        1.0  0.7439804999999963  0.9849086599999941  0.2478843109453676  1.0000
  P   P3        1.0  0.24398044999999582  0.48490870000000413  0.32477686380251003  1.0000
  P   P4        1.0  0.7560195000000038  0.48490870000000413  0.31931288237393896  1.0000
  P   P5        1.0  6.462931017082815e-17  0.83916711999998  0.250616306659653  1.0000
  P   P6        1.0  0.4999999999999999  0.3391671199999966  0.32204487808822446  1.0000
  P   P7        1.0  5.961811823227206e-17  0.13111926000000254  0.250616306659653  1.0000
  P   P8        1.0  0.4999999999999999  0.6311192400000017  0.32204487808822446  1.0000
  P   P9        1.0  0.2560195500000043  0.9849086599999941  0.39620544523108114  1.0000
  P   P10       1.0  0.7439804999999963  0.9849086599999941  0.39074145380251035  1.0000
  P   P11       1.0  0.24398044999999582  0.48490870000000424  0.4676340066596528  1.0000
  P   P12       1.0  0.7560195000000038  0.48490870000000424  0.46217002523108175  1.0000
  P   P13       1.0  9.210844098921307e-17  0.83916711999998  0.39347344951679575  1.0000
  P   P14       1.0  0.49999999999999994  0.3391671199999967  0.4649020209453673  1.0000
  P   P15       1.0  9.625695932345191e-17  0.13111926000000257  0.39347344951679586  1.0000
  P   P16       1.0  0.4999999999999999  0.6311192400000017  0.4649020209453672  1.0000
  P   P17       1.0  0.2560195500000043  0.9849086599999941  0.539062588088224  1.0000
  P   P18       1.0  0.7439804999999963  0.9849086599999941  0.5335985966596531  1.0000
  P   P19       1.0  0.24398044999999585  0.48490870000000424  0.6104911495167956  1.0000
  P   P20       1.0  0.7560195000000038  0.48490870000000424  0.6050271680882245  1.0000
  P   P21       1.0  1.2874728208039292e-16  0.83916711999998  0.5363305923739388  1.0000
  P   P22       1.0  0.49999999999999994  0.3391671199999967  0.6077591638025102  1.0000
  P   P23       1.0  1.237360901418368e-16  0.1311192600000026  0.5363305923739388  1.0000
  P   P24       1.0  0.49999999999999994  0.6311192400000017  0.6077591638025102  1.0000
  P   P25       1.0  0.25601955000000437  0.9849086599999941  0.6819197309453671  1.0000
  P   P26       1.0  0.7439804999999963  0.9849086599999941  0.676455739516796  1.0000
  P   P27       1.0  1.6538612317157281e-16  0.83916711999998  0.6791877352310814  1.0000
  P   P28       1.0  1.603749312330167e-16  0.13111926000000262  0.6791877352310816  1.0000
  O   O1        1.0  0.36145738000000044  0.5970751399999975  0.34905817237393755  1.0000
  O   O2        1.0  0.6385426199999996  0.5970751399999975  0.29503158665965296  1.0000
  O   O3        1.0  0.1385426099999957  0.09707508000000338  0.2776295980882244  1.0000
  O   O4        1.0  0.861457430000001  0.09707508000000337  0.2236030123739398  1.0000
  O   O5        1.0  0.3626455299999985  0.3733371799999992  0.34933679951679514  1.0000
  O   O6        1.0  0.6373544700000013  0.3733371799999992  0.2947529623739397  1.0000
  O   O7        1.0  0.1373544599999978  0.8733371399999975  0.27790822808822363  1.0000
  O   O8        1.0  0.8626455700000042  0.8733371399999974  0.22332438523108233  1.0000
  O   O9        1.0  0.4222591100000031  0.7246024800000033  0.29513107237393804  1.0000
  O   O10       1.0  0.5777408899999968  0.7246024800000033  0.34895868951679676  1.0000
  O   O11       1.0  0.07774089999999986  0.22460257999999916  0.2237025038025108  1.0000
  O   O12       1.0  0.9222590699999786  0.22460257999999916  0.2775301123739394  1.0000
  O   O13       1.0  0.4211991300000013  0.2453017699999988  0.2954423666596532  1.0000
  O   O14       1.0  0.5788008699999986  0.2453017699999988  0.3486473895167957  1.0000
  O   O15       1.0  0.07880085000000021  0.7453017499999979  0.2240138038025094  1.0000
  O   O16       1.0  0.9211991699999981  0.745301749999998  0.27721881808822424  1.0000
  O   O17       1.0  0.14178302999999856  0.48514682000000087  0.21624005094536738  1.0000
  O   O18       1.0  0.8582170099999984  0.48514682000000087  0.28499257094536634  1.0000
  O   O19       1.0  0.3582169700000014  0.9851468600000024  0.28766861380251113  1.0000
  O   O20       1.0  0.6417830299999984  0.9851468600000024  0.21356399094536724  1.0000
  O   O21       1.0  0.41400962999999774  0.4850871199999967  0.3000959638025113  1.0000
  O   O22       1.0  0.5859903700000023  0.4850871199999967  0.34399378808822445  1.0000
  O   O23       1.0  0.08599038999999975  0.9850870800000282  0.22866738665965392  1.0000
  O   O24       1.0  0.9140096299999978  0.9850870800000282  0.2725652138025093  1.0000
  O   O25       1.0  0.18597763000000336  0.5986921799999992  0.30037474808822356  1.0000
  O   O26       1.0  0.8140223400000037  0.5986921799999992  0.34371500808822447  1.0000
  O   O27       1.0  0.31402239000000437  0.09869211999999672  0.22894617665965217  1.0000
  O   O28       1.0  0.6859776099999957  0.09869211999999672  0.2722864366596538  1.0000
  O   O29       1.0  0.1890941300000015  0.3676476500000021  0.3009591152310809  1.0000
  O   O30       1.0  0.8109058399999964  0.3676476500000021  0.3431306352310815  1.0000
  O   O31       1.0  0.3109058800000024  0.8676476100000337  0.22953054951679536  1.0000
  O   O32       1.0  0.6890941199999976  0.8676476100000338  0.27170206380251055  1.0000
  O   O33       1.0  0.36145738000000055  0.5970751399999975  0.49191531523108045  1.0000
  O   O34       1.0  0.6385426199999996  0.5970751399999975  0.43788872951679586  1.0000
  O   O35       1.0  0.1385426099999958  0.0970750800000034  0.4204867409453672  1.0000
  O   O36       1.0  0.861457430000001  0.0970750800000034  0.36646015523108266  1.0000
  O   O37       1.0  0.3626455299999986  0.37333717999999927  0.49219394237393793  1.0000
  O   O38       1.0  0.6373544700000013  0.37333717999999927  0.43761010523108246  1.0000
  O   O39       1.0  0.13735445999999782  0.8733371399999975  0.42076537094536653  1.0000
  O   O40       1.0  0.8626455700000042  0.8733371399999975  0.36618152808822524  1.0000
  O   O41       1.0  0.4222591100000032  0.7246024800000033  0.4379882152310808  1.0000
  O   O42       1.0  0.5777408899999968  0.7246024800000033  0.4918158323739396  1.0000
  O   O43       1.0  0.0777408999999999  0.22460257999999922  0.3665596466596536  1.0000
  O   O44       1.0  0.9222590699999786  0.22460257999999922  0.4203872552310821  1.0000
  O   O45       1.0  0.42119913000000136  0.2453017699999988  0.43829950951679597  1.0000
  O   O46       1.0  0.5788008699999986  0.24530176999999886  0.4915045323739384  1.0000
  O   O47       1.0  0.07880085000000024  0.745301749999998  0.3668709466596522  1.0000
  O   O48       1.0  0.9211991699999981  0.745301749999998  0.4200759609453671  1.0000
  O   O49       1.0  0.1417830299999986  0.48514682000000087  0.35909719380251015  1.0000
  O   O50       1.0  0.8582170099999984  0.48514682000000087  0.4278497138025092  1.0000
  O   O51       1.0  0.3582169700000015  0.9851468600000024  0.43052575665965387  1.0000
  O   O52       1.0  0.6417830299999985  0.9851468600000024  0.35642113380251006  1.0000
  O   O53       1.0  0.41400962999999785  0.48508711999999676  0.44295310665965404  1.0000
  O   O54       1.0  0.5859903700000023  0.48508711999999676  0.48685093094536724  1.0000
  O   O55       1.0  0.08599038999999978  0.9850870800000282  0.37152452951679676  1.0000
  O   O56       1.0  0.9140096299999978  0.9850870800000282  0.41542235665965205  1.0000
  O   O57       1.0  0.1859776300000034  0.5986921799999992  0.44323189094536647  1.0000
  O   O58       1.0  0.8140223400000037  0.5986921799999992  0.48657215094536727  1.0000
  O   O59       1.0  0.3140223900000044  0.09869211999999675  0.371803319516795  1.0000
  O   O60       1.0  0.6859776099999957  0.09869211999999675  0.4151435795167966  1.0000
  O   O61       1.0  0.18909413000000153  0.3676476500000021  0.4438162580882238  1.0000
  O   O62       1.0  0.8109058399999964  0.3676476500000021  0.48598777808822435  1.0000
  O   O63       1.0  0.3109058800000024  0.8676476100000338  0.3723876923739382  1.0000
  O   O64       1.0  0.6890941199999976  0.8676476100000338  0.4145592066596534  1.0000
  O   O65       1.0  0.36145738000000055  0.5970751399999975  0.6347724580882231  1.0000
  O   O66       1.0  0.6385426199999996  0.5970751399999975  0.5807458723739387  1.0000
  O   O67       1.0  0.1385426099999958  0.09707508000000344  0.56334388380251  1.0000
  O   O68       1.0  0.861457430000001  0.09707508000000344  0.5093172980882256  1.0000
  O   O69       1.0  0.36264552999999866  0.37333717999999927  0.6350510852310808  1.0000
  O   O70       1.0  0.6373544700000013  0.37333717999999927  0.5804672480882253  1.0000
  O   O71       1.0  0.13735445999999787  0.8733371399999975  0.5636225138025094  1.0000
  O   O72       1.0  0.8626455700000042  0.8733371399999975  0.5090386709453679  1.0000
  O   O73       1.0  0.4222591100000032  0.7246024800000033  0.5808453580882238  1.0000
  O   O74       1.0  0.5777408899999968  0.7246024800000033  0.6346729752310825  1.0000
  O   O75       1.0  0.07774089999999995  0.22460257999999925  0.5094167895167965  1.0000
  O   O76       1.0  0.9222590699999786  0.22460257999999925  0.5632443980882251  1.0000
  O   O77       1.0  0.42119913000000136  0.24530176999999886  0.5811566523739389  1.0000
  O   O78       1.0  0.5788008699999986  0.2453017699999989  0.6343616752310813  1.0000
  O   O79       1.0  0.07880085000000028  0.745301749999998  0.5097280895167952  1.0000
  O   O80       1.0  0.9211991699999981  0.745301749999998  0.5629331038025099  1.0000
  O   O81       1.0  0.1417830299999986  0.48514682000000087  0.501954336659653  1.0000
  O   O82       1.0  0.8582170099999984  0.48514682000000087  0.570706856659652  1.0000
  O   O83       1.0  0.3582169700000015  0.9851468600000024  0.5733828995167969  1.0000
  O   O84       1.0  0.6417830299999985  0.9851468600000024  0.4992782766596529  1.0000
  O   O85       1.0  0.41400962999999785  0.48508711999999676  0.585810249516797  1.0000
  O   O86       1.0  0.5859903700000023  0.48508711999999676  0.6297080738025099  1.0000
  O   O87       1.0  0.08599038999999982  0.9850870800000282  0.5143816723739395  1.0000
  O   O88       1.0  0.9140096299999978  0.9850870800000282  0.5582794995167949  1.0000
  O   O89       1.0  0.1859776300000034  0.5986921799999992  0.5860890338025093  1.0000
  O   O90       1.0  0.8140223400000037  0.5986921799999992  0.6294292938025102  1.0000
  O   O91       1.0  0.3140223900000044  0.09869211999999677  0.5146604623739379  1.0000
  O   O92       1.0  0.6859776099999957  0.09869211999999679  0.5580007223739396  1.0000
  O   O93       1.0  0.18909413000000158  0.3676476500000021  0.5866734009453666  1.0000
  O   O94       1.0  0.8109058399999964  0.3676476500000021  0.6288449209453671  1.0000
  O   O95       1.0  0.3109058800000024  0.8676476100000338  0.5152448352310811  1.0000
  O   O96       1.0  0.6890941199999976  0.8676476100000338  0.5574163495167962  1.0000
  O   O97       1.0  0.13854260999999585  0.09707508000000348  0.7062010266596529  1.0000
  O   O98       1.0  0.861457430000001  0.09707508000000345  0.6521744409453685  1.0000
  O   O99       1.0  0.13735445999999787  0.8733371399999975  0.7064796566596521  1.0000
  O   O100      1.0  0.8626455700000042  0.8733371399999975  0.6518958138025108  1.0000
  O   O101      1.0  0.07774089999999997  0.22460257999999927  0.6522739323739393  1.0000
  O   O102      1.0  0.9222590699999786  0.22460257999999927  0.7061015409453678  1.0000
  O   O103      1.0  0.07880085000000031  0.745301749999998  0.6525852323739378  1.0000
  O   O104      1.0  0.9211991699999981  0.745301749999998  0.7057902466596527  1.0000
  O   O105      1.0  0.14178302999999864  0.48514682000000087  0.6448114795167958  1.0000
  O   O106      1.0  0.8582170099999985  0.485146820000001  0.7135639995167948  1.0000
  O   O107      1.0  0.3582169700000016  0.9851468600000024  0.7162400423739396  1.0000
  O   O108      1.0  0.6417830299999985  0.9851468600000024  0.6421354195167955  1.0000
  O   O109      1.0  0.08599038999999985  0.9850870800000282  0.6572388152310824  1.0000
  O   O110      1.0  0.9140096299999978  0.9850870800000282  0.7011366423739378  1.0000
  O   O111      1.0  0.3140223900000044  0.0986921199999968  0.6575176052310807  1.0000
  O   O112      1.0  0.6859776099999957  0.0986921199999968  0.7008578652310823  1.0000
  O   O113      1.0  0.3109058800000025  0.8676476100000338  0.6581019780882239  1.0000
  O   O114      1.0  0.6890941199999976  0.8676476100000338  0.7002734923739391  1.0000
