data_image0
_chemical_formula_structural       Ag56P28O128
_chemical_formula_sum              "Ag56 P28 O128"
_cell_length_a       10.91737588
_cell_length_b       12.0141395
_cell_length_c       41.809615889999996
_cell_angle_alpha    90.0
_cell_angle_beta     90.0
_cell_angle_gamma    90.0

_space_group_name_H-M_alt    "P 1"
_space_group_IT_number       1

loop_
  _space_group_symop_operation_xyz
  'x, y, z'

loop_
  _atom_site_type_symbol
  _atom_site_label
  _atom_site_symmetry_multiplicity
  _atom_site_fract_x
  _atom_site_fract_y
  _atom_site_fract_z
  _atom_site_occupancy
  Ag  Ag1       1.0  0.7679005700000043  0.1548547099999963  0.324501017822666  1.0000
  Ag  Ag2       1.0  0.23209942999999567  0.15485470999999632  0.3282170306798091  1.0000
  Ag  Ag3       1.0  0.7320994299999956  0.654854729999997  0.2530724406798087  1.0000
  Ag  Ag4       1.0  0.2679005700000045  0.654854729999997  0.25678846067980965  1.0000
  Ag  Ag5       1.0  0.23528554999999698  0.8162213699999988  0.32787880496552346  1.0000
  Ag  Ag6       1.0  0.76471449  0.8162213699999988  0.3248392392512389  1.0000
  Ag  Ag7       1.0  0.26471445000000315  0.3162213899999996  0.2564502335369508  1.0000
  Ag  Ag8       1.0  0.73528551  0.3162213899999996  0.25341066782266747  1.0000
  Ag  Ag9       1.0  7.629027846570139e-17  0.9826896600000359  0.32635902210838064  1.0000
  Ag  Ag10      1.0  0.4999999999999999  0.4826896200000009  0.2549304506798092  1.0000
  Ag  Ag11      1.0  7.451405566151531e-17  0.6771063399999974  0.32635902210838064  1.0000
  Ag  Ag12      1.0  0.4999999999999999  0.17710633999999753  0.2549304506798092  1.0000
  Ag  Ag13      1.0  7.552894084287974e-17  0.3028537699999988  0.32635902210838064  1.0000
  Ag  Ag14      1.0  0.4999999999999999  0.8028538300000012  0.2549304506798092  1.0000
  Ag  Ag15      1.0  6.195481720466276e-17  0.4861136700000029  0.2549304506798092  1.0000
  Ag  Ag16      1.0  0.4999999999999999  0.9861136299999997  0.32635902210838064  1.0000
  Ag  Ag17      1.0  0.7679005700000043  0.15485470999999634  0.46735816067980873  1.0000
  Ag  Ag18      1.0  0.2320994299999957  0.15485470999999634  0.471074173536952  1.0000
  Ag  Ag19      1.0  0.7320994299999956  0.6548547299999972  0.3959295835369514  1.0000
  Ag  Ag20      1.0  0.26790057000000456  0.6548547299999972  0.39964560353695244  1.0000
  Ag  Ag21      1.0  0.23528554999999704  0.8162213699999988  0.4707359478226662  1.0000
  Ag  Ag22      1.0  0.76471449  0.8162213699999988  0.46769638210838166  1.0000
  Ag  Ag23      1.0  0.26471445000000315  0.31622138999999966  0.39930737639409364  1.0000
  Ag  Ag24      1.0  0.73528551  0.31622138999999966  0.3962678106798104  1.0000
  Ag  Ag25      1.0  1.1292911955688123e-16  0.9826896600000359  0.46921616496552343  1.0000
  Ag  Ag26      1.0  0.4999999999999999  0.4826896200000009  0.39778759353695187  1.0000
  Ag  Ag27      1.0  1.111528967526952e-16  0.6771063399999974  0.46921616496552343  1.0000
  Ag  Ag28      1.0  0.4999999999999999  0.1771063399999976  0.397787593536952  1.0000
  Ag  Ag29      1.0  1.121677819340596e-16  0.30285376999999886  0.46921616496552343  1.0000
  Ag  Ag30      1.0  0.4999999999999999  0.8028538300000013  0.39778759353695187  1.0000
  Ag  Ag31      1.0  9.859365829584265e-17  0.48611367000000294  0.397787593536952  1.0000
  Ag  Ag32      1.0  0.4999999999999999  0.9861136299999997  0.4692161649655233  1.0000
  Ag  Ag33      1.0  0.7679005700000043  0.15485470999999637  0.6102153035369517  1.0000
  Ag  Ag34      1.0  0.2320994299999957  0.15485470999999637  0.6139313163940948  1.0000
  Ag  Ag35      1.0  0.7320994299999956  0.6548547299999972  0.5387867263940944  1.0000
  Ag  Ag36      1.0  0.26790057000000456  0.6548547299999972  0.5425027463940953  1.0000
  Ag  Ag37      1.0  0.23528554999999707  0.8162213699999988  0.6135930906798092  1.0000
  Ag  Ag38      1.0  0.76471449  0.8162213699999988  0.6105535249655245  1.0000
  Ag  Ag39      1.0  0.26471445000000315  0.31622138999999966  0.5421645192512364  1.0000
  Ag  Ag40      1.0  0.73528551  0.31622138999999966  0.5391249535369532  1.0000
  Ag  Ag41      1.0  1.4956796064806112e-16  0.9826896600000359  0.6120733078226662  1.0000
  Ag  Ag42      1.0  0.4999999999999999  0.4826896200000009  0.5406447363940948  1.0000
  Ag  Ag43      1.0  1.4779173784387508e-16  0.6771063399999974  0.6120733078226662  1.0000
  Ag  Ag44      1.0  0.4999999999999999  0.17710633999999761  0.5406447363940948  1.0000
  Ag  Ag45      1.0  1.4880662302523945e-16  0.30285376999999886  0.6120733078226662  1.0000
  Ag  Ag46      1.0  0.4999999999999999  0.8028538300000013  0.5406447363940948  1.0000
  Ag  Ag47      1.0  1.2607278911422754e-16  0.48611367000000294  0.5406447363940948  1.0000
  Ag  Ag48      1.0  0.49999999999999994  0.9861136299999997  0.6120733078226662  1.0000
  Ag  Ag49      1.0  0.7320994299999956  0.6548547299999972  0.6816438692512371  1.0000
  Ag  Ag50      1.0  0.2679005700000046  0.6548547299999972  0.6853598892512381  1.0000
  Ag  Ag51      1.0  0.26471445000000327  0.3162213899999997  0.6850216621083794  1.0000
  Ag  Ag52      1.0  0.73528551  0.3162213899999997  0.6819820963940959  1.0000
  Ag  Ag53      1.0  0.49999999999999994  0.482689620000001  0.6835018792512377  1.0000
  Ag  Ag54      1.0  0.49999999999999994  0.17710633999999764  0.6835018792512377  1.0000
  Ag  Ag55      1.0  0.49999999999999994  0.8028538300000013  0.6835018792512377  1.0000
  Ag  Ag56      1.0  1.627116302054074e-16  0.48611367000000305  0.6835018792512377  1.0000
  P   P1        1.0  0.2560195500000042  0.9849086599999941  0.2576624463940947  1.0000
  P   P2        1.0  0.7439804999999963  0.9849086599999941  0.2521984549655238  1.0000
  P   P3        1.0  0.24398044999999582  0.48490870000000413  0.32909100782266626  1.0000
  P   P4        1.0  0.7560195000000038  0.48490870000000413  0.32362702639409513  1.0000
  P   P5        1.0  6.462931017082815e-17  0.83916711999998  0.2549304506798092  1.0000
  P   P6        1.0  0.4999999999999999  0.3391671199999966  0.32635902210838064  1.0000
  P   P7        1.0  5.961811823227206e-17  0.13111926000000254  0.2549304506798092  1.0000
  P   P8        1.0  0.4999999999999999  0.6311192400000017  0.32635902210838064  1.0000
  P   P9        1.0  0.2560195500000043  0.9849086599999941  0.40051958925123743  1.0000
  P   P10       1.0  0.7439804999999963  0.9849086599999941  0.3950555978226666  1.0000
  P   P11       1.0  0.24398044999999582  0.48490870000000424  0.4719481506798091  1.0000
  P   P12       1.0  0.7560195000000038  0.48490870000000424  0.46648416925123803  1.0000
  P   P13       1.0  9.210844098921307e-17  0.83916711999998  0.397787593536952  1.0000
  P   P14       1.0  0.49999999999999994  0.3391671199999967  0.46921616496552343  1.0000
  P   P15       1.0  9.625695932345191e-17  0.13111926000000257  0.397787593536952  1.0000
  P   P16       1.0  0.4999999999999999  0.6311192400000017  0.46921616496552343  1.0000
  P   P17       1.0  0.2560195500000043  0.9849086599999941  0.5433767321083802  1.0000
  P   P18       1.0  0.7439804999999963  0.9849086599999941  0.5379127406798094  1.0000
  P   P19       1.0  0.24398044999999585  0.48490870000000424  0.6148052935369519  1.0000
  P   P20       1.0  0.7560195000000038  0.48490870000000424  0.6093413121083808  1.0000
  P   P21       1.0  1.2874728208039292e-16  0.83916711999998  0.5406447363940948  1.0000
  P   P22       1.0  0.49999999999999994  0.3391671199999967  0.6120733078226662  1.0000
  P   P23       1.0  1.237360901418368e-16  0.1311192600000026  0.5406447363940948  1.0000
  P   P24       1.0  0.49999999999999994  0.6311192400000017  0.6120733078226662  1.0000
  P   P25       1.0  0.25601955000000437  0.9849086599999941  0.6862338749655231  1.0000
  P   P26       1.0  0.7439804999999963  0.9849086599999941  0.6807698835369522  1.0000
  P   P27       1.0  1.6538612317157281e-16  0.83916711999998  0.6835018792512377  1.0000
  P   P28       1.0  1.603749312330167e-16  0.13111926000000262  0.6835018792512377  1.0000
  O   O1        1.0  0.36145738000000044  0.5970751399999974  0.2105151735369509  1.0000
  O   O2        1.0  0.6385426199999996  0.5970751399999975  0.29934573067980924  1.0000
  O   O3        1.0  0.1385426099999957  0.09707508000000338  0.2819437421083806  1.0000
  O   O4        1.0  0.861457430000001  0.09707508000000337  0.227917156394096  1.0000
  O   O5        1.0  0.3626455299999985  0.3733371799999992  0.2107938006798084  1.0000
  O   O6        1.0  0.6373544700000013  0.3733371799999992  0.29906710639409584  1.0000
  O   O7        1.0  0.1373544599999978  0.8733371399999975  0.2822223721083798  1.0000
  O   O8        1.0  0.8626455700000042  0.8733371399999974  0.2276385292512385  1.0000
  O   O9        1.0  0.4222591100000031  0.7246024800000033  0.29944521639409427  1.0000
  O   O10       1.0  0.5777408899999968  0.7246024800000033  0.21041569067981006  1.0000
  O   O11       1.0  0.07774089999999986  0.22460257999999916  0.22801664782266698  1.0000
  O   O12       1.0  0.9222590699999786  0.22460257999999916  0.2818442563940955  1.0000
  O   O13       1.0  0.4211991300000013  0.2453017699999988  0.2997565106798093  1.0000
  O   O14       1.0  0.5788008699999986  0.2453017699999988  0.21010439067980896  1.0000
  O   O15       1.0  0.07880085000000021  0.7453017499999979  0.22832794782266558  1.0000
  O   O16       1.0  0.9211991699999981  0.745301749999998  0.2815329621083804  1.0000
  O   O17       1.0  0.14178302999999856  0.48514682000000087  0.2205541949655235  1.0000
  O   O18       1.0  0.8582170099999984  0.48514682000000087  0.2893067149655225  1.0000
  O   O19       1.0  0.3582169700000014  0.9851468600000024  0.29198275782266725  1.0000
  O   O20       1.0  0.6417830299999984  0.9851468600000024  0.2178781349655234  1.0000
  O   O21       1.0  0.41400962999999774  0.4850871199999967  0.3044101078226674  1.0000
  O   O22       1.0  0.5859903700000022  0.4850871199999967  0.20545078925123775  1.0000
  O   O23       1.0  0.08599038999999975  0.9850870800000282  0.2329815306798101  1.0000
  O   O24       1.0  0.9140096299999978  0.9850870800000282  0.27687935782266543  1.0000
  O   O25       1.0  0.18597763000000336  0.5986921799999992  0.30468889210837974  1.0000
  O   O26       1.0  0.8140223400000037  0.5986921799999991  0.20517200925123785  1.0000
  O   O27       1.0  0.31402239000000437  0.09869211999999672  0.23326032067980834  1.0000
  O   O28       1.0  0.6859776099999957  0.09869211999999672  0.27660058067980997  1.0000
  O   O29       1.0  0.1890941300000015  0.3676476500000021  0.30527325925123705  1.0000
  O   O30       1.0  0.8109058399999963  0.3676476500000021  0.2045876363940948  1.0000
  O   O31       1.0  0.3109058800000024  0.8676476100000337  0.23384469353695153  1.0000
  O   O32       1.0  0.6890941199999976  0.8676476100000338  0.2760162078226668  1.0000
  O   O33       1.0  0.36145738000000044  0.5970751399999975  0.35337231639409367  1.0000
  O   O34       1.0  0.6385426199999996  0.5970751399999975  0.442202873536952  1.0000
  O   O35       1.0  0.1385426099999958  0.09707508000000342  0.4248008849655235  1.0000
  O   O36       1.0  0.861457430000001  0.0970750800000034  0.3707742992512387  1.0000
  O   O37       1.0  0.3626455299999985  0.3733371799999992  0.35365094353695126  1.0000
  O   O38       1.0  0.6373544700000013  0.37333717999999927  0.4419242492512386  1.0000
  O   O39       1.0  0.13735445999999782  0.8733371399999975  0.4250795149655225  1.0000
  O   O40       1.0  0.8626455700000042  0.8733371399999975  0.3704956721083814  1.0000
  O   O41       1.0  0.4222591100000032  0.7246024800000033  0.44230235925123706  1.0000
  O   O42       1.0  0.5777408899999968  0.7246024800000033  0.3532728335369529  1.0000
  O   O43       1.0  0.0777408999999999  0.22460257999999922  0.37087379067980975  1.0000
  O   O44       1.0  0.9222590699999786  0.22460257999999922  0.42470139925123823  1.0000
  O   O45       1.0  0.42119913000000136  0.2453017699999988  0.4426136535369521  1.0000
  O   O46       1.0  0.5788008699999986  0.2453017699999988  0.3529615335369518  1.0000
  O   O47       1.0  0.07880085000000024  0.745301749999998  0.3711850906798084  1.0000
  O   O48       1.0  0.9211991699999981  0.745301749999998  0.4243901049655232  1.0000
  O   O49       1.0  0.1417830299999986  0.48514682000000087  0.36341133782266644  1.0000
  O   O50       1.0  0.8582170099999984  0.48514682000000087  0.43216385782266525  1.0000
  O   O51       1.0  0.3582169700000015  0.9851468600000024  0.43483990067981015  1.0000
  O   O52       1.0  0.6417830299999985  0.9851468600000024  0.36073527782266623  1.0000
  O   O53       1.0  0.41400962999999785  0.48508711999999676  0.44726725067981016  1.0000
  O   O54       1.0  0.5859903700000023  0.4850871199999967  0.3483079321083806  1.0000
  O   O55       1.0  0.08599038999999978  0.9850870800000282  0.37583867353695294  1.0000
  O   O56       1.0  0.9140096299999978  0.9850870800000282  0.4197365006798082  1.0000
  O   O57       1.0  0.1859776300000034  0.5986921799999992  0.4475460349655226  1.0000
  O   O58       1.0  0.8140223400000037  0.5986921799999992  0.3480291521083807  1.0000
  O   O59       1.0  0.3140223900000044  0.09869211999999675  0.3761174635369512  1.0000
  O   O60       1.0  0.6859776099999957  0.09869211999999675  0.4194577235369529  1.0000
  O   O61       1.0  0.18909413000000153  0.3676476500000021  0.4481304021083799  1.0000
  O   O62       1.0  0.8109058399999964  0.3676476500000021  0.3474447792512376  1.0000
  O   O63       1.0  0.3109058800000024  0.8676476100000338  0.3767018363940944  1.0000
  O   O64       1.0  0.6890941199999976  0.8676476100000338  0.4188733506798095  1.0000
  O   O65       1.0  0.36145738000000055  0.5970751399999975  0.49622945925123657  1.0000
  O   O66       1.0  0.6385426199999996  0.5970751399999975  0.5850600163940948  1.0000
  O   O67       1.0  0.1385426099999958  0.09707508000000344  0.5676580278226663  1.0000
  O   O68       1.0  0.861457430000001  0.09707508000000344  0.5136314421083815  1.0000
  O   O69       1.0  0.3626455299999986  0.37333717999999927  0.49650808639409405  1.0000
  O   O70       1.0  0.6373544700000013  0.37333717999999927  0.5847813921083815  1.0000
  O   O71       1.0  0.13735445999999787  0.8733371399999975  0.5679366578226654  1.0000
  O   O72       1.0  0.8626455700000042  0.8733371399999975  0.5133528149655242  1.0000
  O   O73       1.0  0.4222591100000032  0.7246024800000033  0.5851595021083799  1.0000
  O   O74       1.0  0.5777408899999968  0.7246024800000033  0.49612997639409556  1.0000
  O   O75       1.0  0.07774089999999995  0.22460257999999925  0.5137309335369526  1.0000
  O   O76       1.0  0.9222590699999786  0.22460257999999925  0.5675585421083812  1.0000
  O   O77       1.0  0.42119913000000136  0.24530176999999886  0.5854707963940949  1.0000
  O   O78       1.0  0.5788008699999986  0.24530176999999886  0.4958186763940946  1.0000
  O   O79       1.0  0.07880085000000028  0.745301749999998  0.5140422335369512  1.0000
  O   O80       1.0  0.9211991699999981  0.745301749999998  0.5672472478226661  1.0000
  O   O81       1.0  0.1417830299999986  0.48514682000000087  0.5062684806798091  1.0000
  O   O82       1.0  0.8582170099999984  0.48514682000000087  0.5750210006798081  1.0000
  O   O83       1.0  0.3582169700000015  0.9851468600000024  0.5776970435369528  1.0000
  O   O84       1.0  0.6417830299999985  0.9851468600000024  0.5035924206798089  1.0000
  O   O85       1.0  0.41400962999999785  0.48508711999999676  0.5901243935369531  1.0000
  O   O86       1.0  0.5859903700000023  0.48508711999999676  0.49116507496552336  1.0000
  O   O87       1.0  0.08599038999999982  0.9850870800000282  0.5186958163940958  1.0000
  O   O88       1.0  0.9140096299999978  0.9850870800000282  0.5625936435369512  1.0000
  O   O89       1.0  0.1859776300000034  0.5986921799999992  0.5904031778226654  1.0000
  O   O90       1.0  0.8140223400000037  0.5986921799999992  0.4908862949655235  1.0000
  O   O91       1.0  0.3140223900000044  0.09869211999999677  0.5189746063940941  1.0000
  O   O92       1.0  0.6859776099999957  0.09869211999999679  0.5623148663940957  1.0000
  O   O93       1.0  0.18909413000000158  0.3676476500000021  0.5909875449655229  1.0000
  O   O94       1.0  0.8109058399999964  0.3676476500000021  0.4903019221083805  1.0000
  O   O95       1.0  0.3109058800000024  0.8676476100000338  0.5195589792512372  1.0000
  O   O96       1.0  0.6890941199999976  0.8676476100000338  0.5617304935369525  1.0000
  O   O97       1.0  0.36145738000000055  0.5970751399999975  0.6390866021083794  1.0000
  O   O98       1.0  0.6385426199999996  0.5970751399999975  0.7279171592512377  1.0000
  O   O99       1.0  0.13854260999999585  0.09707508000000348  0.7105151706798092  1.0000
  O   O100      1.0  0.861457430000001  0.09707508000000345  0.6564885849655244  1.0000
  O   O101      1.0  0.36264552999999866  0.37333717999999927  0.6393652292512371  1.0000
  O   O102      1.0  0.6373544700000013  0.37333717999999927  0.7276385349655242  1.0000
  O   O103      1.0  0.13735445999999787  0.8733371399999975  0.7107938006798085  1.0000
  O   O104      1.0  0.8626455700000042  0.8733371399999975  0.6562099578226669  1.0000
  O   O105      1.0  0.4222591100000032  0.7246024800000033  0.7280166449655228  1.0000
  O   O106      1.0  0.5777408899999968  0.7246024800000033  0.6389871192512385  1.0000
  O   O107      1.0  0.07774089999999997  0.22460257999999927  0.6565880763940954  1.0000
  O   O108      1.0  0.9222590699999788  0.22460257999999927  0.7104156849655241  1.0000
  O   O109      1.0  0.4211991300000015  0.24530176999999892  0.7283279392512376  1.0000
  O   O110      1.0  0.5788008699999986  0.2453017699999989  0.6386758192512376  1.0000
  O   O111      1.0  0.07880085000000031  0.745301749999998  0.6568993763940942  1.0000
  O   O112      1.0  0.9211991699999981  0.745301749999998  0.7101043906798089  1.0000
  O   O113      1.0  0.14178302999999864  0.48514682000000087  0.649125623536952  1.0000
  O   O114      1.0  0.8582170099999985  0.485146820000001  0.717878143536951  1.0000
  O   O115      1.0  0.3582169700000016  0.9851468600000024  0.7205541863940959  1.0000
  O   O116      1.0  0.6417830299999985  0.9851468600000024  0.6464495635369518  1.0000
  O   O117      1.0  0.4140096299999979  0.48508711999999676  0.7329815363940961  1.0000
  O   O118      1.0  0.5859903700000023  0.48508711999999676  0.6340222178226662  1.0000
  O   O119      1.0  0.08599038999999985  0.9850870800000282  0.6615529592512385  1.0000
  O   O120      1.0  0.9140096299999978  0.9850870800000282  0.7054507863940939  1.0000
  O   O121      1.0  0.18597763000000342  0.5986921799999992  0.7332603206798083  1.0000
  O   O122      1.0  0.8140223400000037  0.5986921799999992  0.6337434378226663  1.0000
  O   O123      1.0  0.3140223900000044  0.0986921199999968  0.6618317492512367  1.0000
  O   O124      1.0  0.6859776099999957  0.0986921199999968  0.7051720092512386  1.0000
  O   O125      1.0  0.18909413000000158  0.3676476500000022  0.7338446878226655  1.0000
  O   O126      1.0  0.8109058399999964  0.3676476500000021  0.6331590649655234  1.0000
  O   O127      1.0  0.3109058800000025  0.8676476100000338  0.6624161221083801  1.0000
  O   O128      1.0  0.6890941199999976  0.8676476100000338  0.7045876363940952  1.0000
