data_image0
_chemical_formula_structural       Ag16P6O20
_chemical_formula_sum              "Ag16 P6 O20"
_cell_length_a       6.119910333474266
_cell_length_b       8.654860194106556
_cell_length_c       30.292010679372957
_cell_angle_alpha    90.0
_cell_angle_beta     90.0
_cell_angle_gamma    90.0

_space_group_name_H-M_alt    "P 1"
_space_group_IT_number       1

loop_
  _space_group_symop_operation_xyz
  'x, y, z'

loop_
  _atom_site_type_symbol
  _atom_site_label
  _atom_site_symmetry_multiplicity
  _atom_site_fract_x
  _atom_site_fract_y
  _atom_site_fract_z
  _atom_site_occupancy
  Ag  Ag1       1.0  0.49999999999999994  0.37857630477458887  0.41964285714285715  1.0000
  Ag  Ag2       1.0  7.867039620308625e-17  0.12857630477458915  0.41964285714285715  1.0000
  Ag  Ag3       1.0  0.49999999999999994  0.6285763047745891  0.3482142857142857  1.0000
  Ag  Ag4       1.0  6.527969046639068e-17  0.878576304774589  0.3482142857142857  1.0000
  Ag  Ag5       1.0  0.7500000000000001  0.753576304774589  0.45535714285714285  1.0000
  Ag  Ag6       1.0  0.25000000000000006  0.753576304774589  0.45535714285714285  1.0000
  Ag  Ag7       1.0  0.49999999999999994  0.8785763047745889  0.5625000000000001  1.0000
  Ag  Ag8       1.0  1.0545180767647733e-16  0.6285763047745889  0.5625  1.0000
  Ag  Ag9       1.0  0.5000000000000001  0.12857630477458892  0.4910714285714286  1.0000
  Ag  Ag10      1.0  9.206110193978177e-17  0.3785763047745889  0.49107142857142866  1.0000
  Ag  Ag11      1.0  0.75  0.2535763047745889  0.5982142857142858  1.0000
  Ag  Ag12      1.0  0.25000000000000017  0.2535763047745889  0.5982142857142858  1.0000
  Ag  Ag13      1.0  0.5000000000000001  0.3785763047745885  0.7053571428571429  1.0000
  Ag  Ag14      1.0  1.3223321914986838e-16  0.12857630477458848  0.705357142857143  1.0000
  Ag  Ag15      1.0  0.5000000000000001  0.6285763047745887  0.6339285714285714  1.0000
  Ag  Ag16      1.0  1.1884251341317285e-16  0.8785763047745881  0.6339285714285714  1.0000
  P   P1        1.0  0.5000000000000002  0.003576304774588923  0.38392857142857134  1.0000
  P   P2        1.0  7.197504333473847e-17  0.5035763047745891  0.3839285714285714  1.0000
  P   P3        1.0  0.5000000000000001  0.5035763047745889  0.5267857142857143  1.0000
  P   P4        1.0  9.875645480812951e-17  0.003576304774588923  0.5267857142857144  1.0000
  P   P5        1.0  0.5000000000000001  0.003576304774588257  0.6696428571428572  1.0000
  P   P6        1.0  1.2553786628152064e-16  0.5035763047745883  0.6696428571428572  1.0000
  O   O1        1.0  0.3520947111407097  0.15148159363387936  0.3839285714285715  1.0000
  O   O2        1.0  0.3520947111407097  0.8556710159152988  0.38392857142857156  1.0000
  O   O3        1.0  0.8520947111407098  0.6514815936338795  0.3839285714285715  1.0000
  O   O4        1.0  0.8520947111407098  0.3556710159152989  0.38392857142857156  1.0000
  O   O5        1.0  0.1479052888592904  0.5035763047745889  0.4261872253883687  1.0000
  O   O6        1.0  0.35209471114070967  0.6514815936338789  0.5267857142857144  1.0000
  O   O7        1.0  0.3520947111407097  0.3556710159152985  0.5267857142857143  1.0000
  O   O8        1.0  0.6479052888592906  0.503576304774589  0.48452706032591714  1.0000
  O   O9        1.0  0.6479052888592904  0.003576304774588923  0.42618722538836873  1.0000
  O   O10       1.0  0.1479052888592904  0.003576304774588923  0.4845270603259171  1.0000
  O   O11       1.0  0.8520947111407097  0.15148159363387914  0.5267857142857143  1.0000
  O   O12       1.0  0.8520947111407098  0.8556710159152985  0.5267857142857143  1.0000
  O   O13       1.0  0.14790528885929044  0.003576304774588701  0.5690443682455116  1.0000
  O   O14       1.0  0.35209471114070984  0.1514815936338787  0.6696428571428573  1.0000
  O   O15       1.0  0.35209471114070984  0.855671015915298  0.6696428571428572  1.0000
  O   O16       1.0  0.6479052888592906  0.003576304774588479  0.6273842031830601  1.0000
  O   O17       1.0  0.6479052888592907  0.5035763047745886  0.5690443682455116  1.0000
  O   O18       1.0  0.1479052888592904  0.5035763047745884  0.62738420318306  1.0000
  O   O19       1.0  0.8520947111407096  0.6514815936338787  0.6696428571428572  1.0000
  O   O20       1.0  0.8520947111407097  0.35567101591529804  0.6696428571428572  1.0000
