data_image0
_chemical_formula_structural       Ag18P4O20
_chemical_formula_sum              "Ag18 P4 O20"
_cell_length_a       6.119910333474266
_cell_length_b       8.654860194106556
_cell_length_c       30.292010679372957
_cell_angle_alpha    90.0
_cell_angle_beta     90.0
_cell_angle_gamma    90.0

_space_group_name_H-M_alt    "P 1"
_space_group_IT_number       1

loop_
  _space_group_symop_operation_xyz
  'x, y, z'

loop_
  _atom_site_type_symbol
  _atom_site_label
  _atom_site_symmetry_multiplicity
  _atom_site_fract_x
  _atom_site_fract_y
  _atom_site_fract_z
  _atom_site_occupancy
  Ag  Ag1       1.0  0.7500000000000001  0.3258928571428566  0.3303571428571429  1.0000
  Ag  Ag2       1.0  0.2500000000000001  0.3258928571428566  0.3303571428571429  1.0000
  Ag  Ag3       1.0  0.49999999999999983  0.9508928571428564  0.2946428571428572  1.0000
  Ag  Ag4       1.0  5.523666116386905e-17  0.7008928571428568  0.2946428571428572  1.0000
  Ag  Ag5       1.0  0.5000000000000003  0.7008928571428565  0.3660714285714286  1.0000
  Ag  Ag6       1.0  6.862736690056459e-17  0.9508928571428564  0.3660714285714286  1.0000
  Ag  Ag7       1.0  0.7500000000000001  0.8258928571428562  0.4732142857142857  1.0000
  Ag  Ag8       1.0  0.25000000000000006  0.8258928571428562  0.4732142857142857  1.0000
  Ag  Ag9       1.0  0.5  0.45089285714285604  0.43749999999999994  1.0000
  Ag  Ag10      1.0  8.201807263726014e-17  0.20089285714285654  0.43749999999999994  1.0000
  Ag  Ag11      1.0  0.5000000000000001  0.20089285714285632  0.5089285714285715  1.0000
  Ag  Ag12      1.0  9.540877837395566e-17  0.4508928571428561  0.5089285714285715  1.0000
  Ag  Ag13      1.0  0.7500000000000001  0.3258928571428559  0.6160714285714287  1.0000
  Ag  Ag14      1.0  0.2500000000000001  0.3258928571428559  0.6160714285714287  1.0000
  Ag  Ag15      1.0  0.49999999999999994  0.9508928571428561  0.580357142857143  1.0000
  Ag  Ag16      1.0  1.0879948411065114e-16  0.700892857142856  0.5803571428571427  1.0000
  Ag  Ag17      1.0  0.5  0.7008928571428558  0.6517857142857142  1.0000
  Ag  Ag18      1.0  1.2219018984734675e-16  0.9508928571428557  0.6517857142857143  1.0000
  P   P1        1.0  0.5000000000000002  0.07589285714285632  0.40178571428571436  1.0000
  P   P2        1.0  7.532271976891234e-17  0.5758928571428565  0.40178571428571436  1.0000
  P   P3        1.0  0.5000000000000001  0.5758928571428561  0.5446428571428571  1.0000
  P   P4        1.0  1.0210413124230342e-16  0.0758928571428561  0.5446428571428572  1.0000
  O   O1        1.0  0.14790528885929036  0.07589285714285654  0.3011872253883688  1.0000
  O   O2        1.0  0.3520947111407097  0.22379814600214692  0.40178571428571436  1.0000
  O   O3        1.0  0.3520947111407097  0.9279875682835661  0.40178571428571436  1.0000
  O   O4        1.0  0.6479052888592906  0.07589285714285654  0.359527060325917  1.0000
  O   O5        1.0  0.6479052888592906  0.5758928571428567  0.3011872253883688  1.0000
  O   O6        1.0  0.1479052888592904  0.5758928571428565  0.3595270603259171  1.0000
  O   O7        1.0  0.8520947111407098  0.7237981460021466  0.40178571428571436  1.0000
  O   O8        1.0  0.8520947111407098  0.42798756828356604  0.40178571428571436  1.0000
  O   O9        1.0  0.14790528885929038  0.5758928571428561  0.44404436824551147  1.0000
  O   O10       1.0  0.35209471114070984  0.7237981460021465  0.5446428571428572  1.0000
  O   O11       1.0  0.35209471114070984  0.42798756828356566  0.5446428571428572  1.0000
  O   O12       1.0  0.6479052888592906  0.5758928571428562  0.5023842031830599  1.0000
  O   O13       1.0  0.6479052888592906  0.07589285714285632  0.44404436824551163  1.0000
  O   O14       1.0  0.1479052888592904  0.0758928571428561  0.5023842031830599  1.0000
  O   O15       1.0  0.8520947111407097  0.22379814600214654  0.5446428571428572  1.0000
  O   O16       1.0  0.8520947111407098  0.9279875682835659  0.5446428571428571  1.0000
  O   O17       1.0  0.1479052888592904  0.07589285714285587  0.5869015111026543  1.0000
  O   O18       1.0  0.6479052888592904  0.07589285714285565  0.6452413460402028  1.0000
  O   O19       1.0  0.6479052888592906  0.575892857142856  0.5869015111026545  1.0000
  O   O20       1.0  0.14790528885929044  0.575892857142856  0.6452413460402027  1.0000
