data_image0
_chemical_formula_structural       Ag6P2O8
_chemical_formula_sum              "Ag6 P2 O8"
_cell_length_a       6.01414227
_cell_length_b       6.01414227
_cell_length_c       6.01414227
_cell_angle_alpha    90.0
_cell_angle_beta     90.0
_cell_angle_gamma    90.0

_space_group_name_H-M_alt    "P 1"
_space_group_IT_number       1

loop_
  _space_group_symop_operation_xyz
  'x, y, z'

loop_
  _atom_site_type_symbol
  _atom_site_label
  _atom_site_symmetry_multiplicity
  _atom_site_fract_x
  _atom_site_fract_y
  _atom_site_fract_z
  _atom_site_occupancy
  Ag  Ag1       1.0  0.9999999882764221  0.5000000117953146  0.24967888693484466  1.0000
  Ag  Ag2       1.0  1.9306079410678792e-08  0.49999997742973246  0.7503211198389227  1.0000
  Ag  Ag3       1.0  0.7503211148496824  1.4853986500054811e-08  0.5000000089460637  1.0000
  Ag  Ag4       1.0  0.5000000128920962  0.24967889345396216  0.9999999893896081  1.0000
  Ag  Ag5       1.0  0.2496788666128113  0.9999999845220329  0.4999999988493621  1.0000
  Ag  Ag6       1.0  0.5000000033893943  0.7503211284539001  5.4034149303431764e-09  1.0000
  P   P1        1.0  0.4999999911084911  0.5000000023469514  0.4999999978473905  1.0000
  P   P2        1.0  3.1037293333682643e-09  2.661659415964066e-09  2.278040911125636e-09  1.0000
  O   O1        1.0  0.8508276637216632  0.8508276570757946  0.8508276611064274  1.0000
  O   O2        1.0  0.6501933500733098  0.34980665918608206  0.6501933519245631  1.0000
  O   O3        1.0  0.3498066492029628  0.6501933558441078  0.6501933534532431  1.0000
  O   O4        1.0  0.6501933468725375  0.6501933550215965  0.3498066501561161  1.0000
  O   O5        1.0  0.34980664400225436  0.3498066476595672  0.34980664861072536  1.0000
  O   O6        1.0  0.14917234387273814  0.14917233812970307  0.8508276544489527  1.0000
  O   O7        1.0  0.1491723426189883  0.8508276524388406  0.14917233798117982  1.0000
  O   O8        1.0  0.8508276547797564  0.14917233686405296  0.1491723438571233  1.0000
