data_image0
_chemical_formula_structural       La8Mn7O23H
_chemical_formula_sum              "La8 Mn7 O23 H1"
_cell_length_a       5.527353
_cell_length_b       5.527353
_cell_length_c       36.497734
_cell_angle_alpha    90.0
_cell_angle_beta     90.0
_cell_angle_gamma    60.871803

_space_group_name_H-M_alt    "P 1"
_space_group_IT_number       1

loop_
  _space_group_symop_operation_xyz
  'x, y, z'

loop_
  _atom_site_type_symbol
  _atom_site_label
  _atom_site_symmetry_multiplicity
  _atom_site_fract_x
  _atom_site_fract_y
  _atom_site_fract_z
  _atom_site_occupancy
  La  La1       1.0  0.660704  0.641239  0.068064  1.0000
  La  La2       1.0  0.006842999999999898  0.9999950000000001  0.011889  1.0000
  La  La3       1.0  0.9627499999999999  0.9841880000000001  0.196707  1.0000
  La  La4       1.0  0.299439  0.316162  0.136383  1.0000
  La  La5       1.0  0.29763  0.30891  0.32115  1.0000
  La  La6       1.0  0.6343200000000001  0.640884  0.260825  1.0000
  La  La7       1.0  0.5902259999999999  0.625077  0.445643  1.0000
  La  La8       1.0  0.9363659999999999  0.9838330000000001  0.389468  1.0000
  Mn  Mn1       1.0  0.306707  0.33673  0.039041  1.0000
  Mn  Mn2       1.0  0.970441  0.984174  0.102994  1.0000
  Mn  Mn3       1.0  0.629755  0.652065  0.16537  1.0000
  Mn  Mn4       1.0  0.29853500000000005  0.312536  0.22876599999999997  1.0000
  Mn  Mn5       1.0  0.967315  0.9730069999999998  0.292162  1.0000
  Mn  Mn6       1.0  0.626629  0.640898  0.354539  1.0000
  Mn  Mn7       1.0  0.29036300000000004  0.288343  0.418492  1.0000
  O   O1        1.0  0.973627  0.453184  0.013239000000000003  1.0000
  O   O2        1.0  0.22000699999999998  0.069656  0.064314  1.0000
  O   O3        1.0  0.777688  0.369552  0.122452  1.0000
  O   O4        1.0  0.686793  0.10525199999999998  0.05725399999999999  1.0000
  O   O5        1.0  0.14254299999999995  0.59939  0.08260000000000002  1.0000
  O   O6        1.0  0.4008380000000001  0.587397  0.015234000000000001  1.0000
  O   O7        1.0  0.2617959999999999  0.8609970000000001  0.142608  1.0000
  O   O8        1.0  0.517793  0.411714  0.192849  1.0000
  O   O9        1.0  0.113649  0.693493  0.250111  1.0000
  O   O10       1.0  0.997703  0.44238399999999994  0.18963800000000003  1.0000
  O   O11       1.0  0.48342099999999993  0.931579  0.20742200000000002  1.0000
  O   O12       1.0  0.7403069999999998  0.892122  0.13847500000000001  1.0000
  O   O13       1.0  0.599366  0.182688  0.267895  1.0000
  O   O14       1.0  0.8567619999999999  0.732951  0.319058  1.0000
  O   O15       1.0  0.45452700000000007  0.025682  0.374932  1.0000
  O   O16       1.0  0.335273  0.764075  0.314924  1.0000
  O   O17       1.0  0.819382  0.25552  0.33508  1.0000
  O   O18       1.0  0.07927600000000001  0.213359  0.264684  1.0000
  O   O19       1.0  0.910277  0.519821  0.400278  1.0000
  O   O20       1.0  0.196231  0.037675  0.442299  1.0000
  O   O21       1.0  0.623443  0.171888  0.4442940000000001  1.0000
  O   O22       1.0  0.37706300000000004  0.555416  0.393219  1.0000
  O   O23       1.0  0.623443  0.171888  0.4840224938292334  1.0000
  H   H1        1.0  0.623443  0.171888  0.5105994862529274  1.0000
