data_image0
_chemical_formula_structural       La32Mn28O89H
_chemical_formula_sum              "La32 Mn28 O89 H1"
_cell_length_a       11.054706
_cell_length_b       11.054706
_cell_length_c       36.497734
_cell_angle_alpha    90.0
_cell_angle_beta     90.0
_cell_angle_gamma    60.871803

_space_group_name_H-M_alt    "P 1"
_space_group_IT_number       1

loop_
  _space_group_symop_operation_xyz
  'x, y, z'

loop_
  _atom_site_type_symbol
  _atom_site_label
  _atom_site_symmetry_multiplicity
  _atom_site_fract_x
  _atom_site_fract_y
  _atom_site_fract_z
  _atom_site_occupancy
  La  La1       1.0  0.330352  0.3206195  0.068064  1.0000
  La  La2       1.0  0.33035200000000003  0.8206195  0.068064  1.0000
  La  La3       1.0  0.830352  0.3206195  0.068064  1.0000
  La  La4       1.0  0.830352  0.8206195  0.06806400000000001  1.0000
  La  La5       1.0  0.0034214999999999086  0.49999750000000004  0.011889000000000002  1.0000
  La  La6       1.0  0.003421499999999949  0.9999975  0.011889  1.0000
  La  La7       1.0  0.5034215000000001  0.49999750000000004  0.011889  1.0000
  La  La8       1.0  0.5034215  0.9999975  0.011889  1.0000
  La  La9       1.0  0.48137499999999994  0.49209400000000003  0.196707  1.0000
  La  La10      1.0  0.48137500000000005  0.9920939999999999  0.196707  1.0000
  La  La11      1.0  0.981375  0.49209400000000003  0.196707  1.0000
  La  La12      1.0  0.981375  0.9920939999999999  0.19670700000000005  1.0000
  La  La13      1.0  0.14971950000000003  0.15808099999999997  0.136383  1.0000
  La  La14      1.0  0.1497195  0.6580809999999999  0.136383  1.0000
  La  La15      1.0  0.6497195  0.15808099999999997  0.13638299999999998  1.0000
  La  La16      1.0  0.6497195  0.6580809999999999  0.136383  1.0000
  La  La17      1.0  0.148815  0.154455  0.32115  1.0000
  La  La18      1.0  0.14881499999999992  0.654455  0.32115  1.0000
  La  La19      1.0  0.648815  0.154455  0.32115  1.0000
  La  La20      1.0  0.6488149999999999  0.654455  0.32115  1.0000
  La  La21      1.0  0.31716000000000005  0.320442  0.260825  1.0000
  La  La22      1.0  0.3171600000000001  0.820442  0.260825  1.0000
  La  La23      1.0  0.81716  0.320442  0.260825  1.0000
  La  La24      1.0  0.8171599999999998  0.820442  0.260825  1.0000
  La  La25      1.0  0.29511299999999996  0.3125385  0.445643  1.0000
  La  La26      1.0  0.29511299999999996  0.8125384999999999  0.445643  1.0000
  La  La27      1.0  0.7951129999999998  0.3125385  0.445643  1.0000
  La  La28      1.0  0.7951129999999998  0.8125384999999999  0.445643  1.0000
  La  La29      1.0  0.46818299999999996  0.49191650000000003  0.389468  1.0000
  La  La30      1.0  0.468183  0.9919165  0.38946800000000004  1.0000
  La  La31      1.0  0.9681829999999999  0.49191650000000003  0.38946800000000004  1.0000
  La  La32      1.0  0.9681829999999998  0.9919165  0.3894679999999999  1.0000
  Mn  Mn1       1.0  0.15335350000000003  0.168365  0.039041  1.0000
  Mn  Mn2       1.0  0.15335350000000006  0.668365  0.03904100000000001  1.0000
  Mn  Mn3       1.0  0.6533535  0.168365  0.03904100000000001  1.0000
  Mn  Mn4       1.0  0.6533534999999999  0.668365  0.039041  1.0000
  Mn  Mn5       1.0  0.4852205  0.492087  0.102994  1.0000
  Mn  Mn6       1.0  0.48522049999999994  0.992087  0.102994  1.0000
  Mn  Mn7       1.0  0.9852205000000003  0.492087  0.102994  1.0000
  Mn  Mn8       1.0  0.9852204999999997  0.992087  0.102994  1.0000
  Mn  Mn9       1.0  0.3148775  0.3260325  0.16537  1.0000
  Mn  Mn10      1.0  0.3148775  0.8260325  0.16536999999999996  1.0000
  Mn  Mn11      1.0  0.8148775000000001  0.3260325  0.16536999999999996  1.0000
  Mn  Mn12      1.0  0.8148775  0.8260325  0.16537  1.0000
  Mn  Mn13      1.0  0.14926750000000005  0.156268  0.22876599999999997  1.0000
  Mn  Mn14      1.0  0.1492675  0.656268  0.2287659999999999  1.0000
  Mn  Mn15      1.0  0.6492675  0.156268  0.2287659999999999  1.0000
  Mn  Mn16      1.0  0.6492674999999998  0.656268  0.2287659999999999  1.0000
  Mn  Mn17      1.0  0.4836575  0.4865034999999999  0.292162  1.0000
  Mn  Mn18      1.0  0.4836574999999999  0.9865035  0.29216200000000003  1.0000
  Mn  Mn19      1.0  0.9836575000000003  0.4865034999999999  0.29216200000000003  1.0000
  Mn  Mn20      1.0  0.9836575000000001  0.9865035  0.2921619999999999  1.0000
  Mn  Mn21      1.0  0.31331450000000005  0.32044899999999993  0.354539  1.0000
  Mn  Mn22      1.0  0.3133145  0.820449  0.354539  1.0000
  Mn  Mn23      1.0  0.8133144999999999  0.32044899999999993  0.354539  1.0000
  Mn  Mn24      1.0  0.8133144999999998  0.820449  0.354539  1.0000
  Mn  Mn25      1.0  0.14518150000000002  0.1441715  0.418492  1.0000
  Mn  Mn26      1.0  0.14518149999999996  0.6441715  0.418492  1.0000
  Mn  Mn27      1.0  0.6451815  0.1441715  0.418492  1.0000
  Mn  Mn28      1.0  0.6451815  0.6441715  0.418492  1.0000
  O   O1        1.0  0.48681350000000007  0.226592  0.013239000000000003  1.0000
  O   O2        1.0  0.4868135  0.7265919999999999  0.013239000000000003  1.0000
  O   O3        1.0  0.9868135  0.226592  0.013239000000000004  1.0000
  O   O4        1.0  0.9868135  0.7265919999999999  0.013239000000000003  1.0000
  O   O5        1.0  0.11000349999999999  0.034828  0.064314  1.0000
  O   O6        1.0  0.11000350000000003  0.534828  0.064314  1.0000
  O   O7        1.0  0.6100035  0.034828  0.064314  1.0000
  O   O8        1.0  0.6100035000000001  0.534828  0.06431400000000001  1.0000
  O   O9        1.0  0.388844  0.184776  0.122452  1.0000
  O   O10       1.0  0.388844  0.6847759999999999  0.122452  1.0000
  O   O11       1.0  0.8888440000000001  0.184776  0.122452  1.0000
  O   O12       1.0  0.888844  0.6847759999999999  0.122452  1.0000
  O   O13       1.0  0.3433965  0.05262599999999999  0.05725399999999999  1.0000
  O   O14       1.0  0.34339650000000005  0.552626  0.057254000000000006  1.0000
  O   O15       1.0  0.8433965000000001  0.05262599999999999  0.057254000000000006  1.0000
  O   O16       1.0  0.8433965000000001  0.552626  0.057254000000000006  1.0000
  O   O17       1.0  0.07127150000000002  0.299695  0.08260000000000003  1.0000
  O   O18       1.0  0.07127150000000006  0.7996949999999999  0.0826  1.0000
  O   O19       1.0  0.5712714999999999  0.299695  0.08260000000000002  1.0000
  O   O20       1.0  0.5712714999999999  0.7996949999999999  0.08260000000000002  1.0000
  O   O21       1.0  0.20041900000000004  0.2936985  0.015234000000000001  1.0000
  O   O22       1.0  0.20041899999999999  0.7936985  0.015234000000000001  1.0000
  O   O23       1.0  0.7004190000000001  0.2936985  0.015234000000000001  1.0000
  O   O24       1.0  0.700419  0.7936985  0.015234000000000001  1.0000
  O   O25       1.0  0.13089799999999996  0.43049850000000006  0.142608  1.0000
  O   O26       1.0  0.13089800000000001  0.9304985  0.142608  1.0000
  O   O27       1.0  0.6308980000000002  0.43049850000000006  0.14260799999999998  1.0000
  O   O28       1.0  0.630898  0.9304985  0.142608  1.0000
  O   O29       1.0  0.2588965  0.205857  0.192849  1.0000
  O   O30       1.0  0.2588965  0.705857  0.192849  1.0000
  O   O31       1.0  0.7588965000000001  0.205857  0.19284899999999996  1.0000
  O   O32       1.0  0.7588964999999998  0.705857  0.192849  1.0000
  O   O33       1.0  0.05682450000000004  0.3467465  0.250111  1.0000
  O   O34       1.0  0.05682450000000008  0.8467465  0.250111  1.0000
  O   O35       1.0  0.5568245000000002  0.3467465  0.250111  1.0000
  O   O36       1.0  0.5568245000000002  0.8467465  0.2501110000000001  1.0000
  O   O37       1.0  0.4988515  0.22119199999999997  0.18963800000000006  1.0000
  O   O38       1.0  0.49885149999999995  0.7211919999999999  0.189638  1.0000
  O   O39       1.0  0.9988515000000001  0.22119199999999997  0.189638  1.0000
  O   O40       1.0  0.9988514999999999  0.7211919999999999  0.18963800000000003  1.0000
  O   O41       1.0  0.24171049999999997  0.4657895  0.20742200000000005  1.0000
  O   O42       1.0  0.2417104999999999  0.9657895000000001  0.207422  1.0000
  O   O43       1.0  0.7417105  0.4657895  0.207422  1.0000
  O   O44       1.0  0.7417104999999998  0.9657895000000001  0.20742200000000002  1.0000
  O   O45       1.0  0.3701534999999999  0.446061  0.13847500000000001  1.0000
  O   O46       1.0  0.3701534999999999  0.946061  0.138475  1.0000
  O   O47       1.0  0.8701535000000001  0.446061  0.138475  1.0000
  O   O48       1.0  0.8701534999999999  0.946061  0.13847500000000001  1.0000
  O   O49       1.0  0.299683  0.091344  0.267895  1.0000
  O   O50       1.0  0.299683  0.591344  0.267895  1.0000
  O   O51       1.0  0.7996829999999999  0.091344  0.267895  1.0000
  O   O52       1.0  0.7996829999999999  0.591344  0.26789500000000005  1.0000
  O   O53       1.0  0.42838099999999996  0.3664755  0.319058  1.0000
  O   O54       1.0  0.4283809999999999  0.8664755000000001  0.319058  1.0000
  O   O55       1.0  0.928381  0.3664755  0.319058  1.0000
  O   O56       1.0  0.9283810000000001  0.8664755000000001  0.31905799999999995  1.0000
  O   O57       1.0  0.22726350000000003  0.012841  0.374932  1.0000
  O   O58       1.0  0.22726350000000003  0.512841  0.374932  1.0000
  O   O59       1.0  0.7272635000000001  0.012841  0.374932  1.0000
  O   O60       1.0  0.7272635  0.512841  0.374932  1.0000
  O   O61       1.0  0.16763650000000005  0.3820375  0.314924  1.0000
  O   O62       1.0  0.16763649999999997  0.8820375  0.314924  1.0000
  O   O63       1.0  0.6676365  0.3820375  0.314924  1.0000
  O   O64       1.0  0.6676364999999999  0.8820375  0.314924  1.0000
  O   O65       1.0  0.409691  0.12775999999999998  0.33508000000000004  1.0000
  O   O66       1.0  0.40969100000000014  0.62776  0.33508000000000004  1.0000
  O   O67       1.0  0.9096910000000001  0.12775999999999998  0.33508000000000004  1.0000
  O   O68       1.0  0.9096910000000001  0.62776  0.33508000000000004  1.0000
  O   O69       1.0  0.03963800000000001  0.1066795  0.264684  1.0000
  O   O70       1.0  0.03963799999999999  0.6066794999999999  0.264684  1.0000
  O   O71       1.0  0.5396380000000001  0.1066795  0.264684  1.0000
  O   O72       1.0  0.5396379999999998  0.6066794999999999  0.264684  1.0000
  O   O73       1.0  0.4551385  0.25991049999999993  0.4002780000000001  1.0000
  O   O74       1.0  0.45513850000000017  0.7599104999999999  0.4002780000000001  1.0000
  O   O75       1.0  0.9551385000000001  0.25991049999999993  0.4002780000000001  1.0000
  O   O76       1.0  0.9551385000000001  0.7599104999999999  0.400278  1.0000
  O   O77       1.0  0.09811550000000002  0.0188375  0.442299  1.0000
  O   O78       1.0  0.09811550000000004  0.5188375  0.442299  1.0000
  O   O79       1.0  0.5981154999999999  0.0188375  0.442299  1.0000
  O   O80       1.0  0.5981154999999999  0.5188375  0.442299  1.0000
  O   O81       1.0  0.3117215  0.085944  0.4442940000000001  1.0000
  O   O82       1.0  0.3117215  0.585944  0.4442940000000001  1.0000
  O   O83       1.0  0.8117214999999999  0.085944  0.4442940000000001  1.0000
  O   O84       1.0  0.8117215000000001  0.585944  0.4442940000000001  1.0000
  O   O85       1.0  0.18853150000000002  0.277708  0.393219  1.0000
  O   O86       1.0  0.18853150000000002  0.777708  0.393219  1.0000
  O   O87       1.0  0.6885315  0.277708  0.393219  1.0000
  O   O88       1.0  0.6885315000000001  0.777708  0.39321900000000004  1.0000
  O   O89       1.0  0.3117215  0.085944  0.4840224938292334  1.0000
  H   H1        1.0  0.3117215  0.085944  0.5105994862529274  1.0000
