# generated using pymatgen
data_Ag
_symmetry_space_group_name_H-M   'P 1'
_cell_length_a   4.10435636
_cell_length_b   4.10435636
_cell_length_c   4.10435636
_cell_angle_alpha   90.00000000
_cell_angle_beta   90.00000000
_cell_angle_gamma   90.00000000
_symmetry_Int_Tables_number   1
_chemical_formula_structural   Ag
_chemical_formula_sum   Ag4
_cell_volume   69.14092480
_cell_formula_units_Z   4
loop_
 _symmetry_equiv_pos_site_id
 _symmetry_equiv_pos_as_xyz
  1  'x, y, z'
loop_
 _atom_type_symbol
 _atom_type_oxidation_number
  Ag0+  0.0
loop_
 _atom_site_type_symbol
 _atom_site_label
 _atom_site_symmetry_multiplicity
 _atom_site_fract_x
 _atom_site_fract_y
 _atom_site_fract_z
 _atom_site_occupancy
  Ag0+  Ag0  1  0.00000000  0.00000000  0.00000000  1
  Ag0+  Ag1  1  0.00000000  0.50000000  0.50000000  1
  Ag0+  Ag2  1  0.50000000  0.00000000  0.50000000  1
  Ag0+  Ag3  1  0.50000000  0.50000000  0.00000000  1