data_image0
_chemical_formula_structural       Ag6P2O8
_chemical_formula_sum              "Ag6 P2 O8"
_cell_length_a       6.1199103344264
_cell_length_b       6.1199103338843
_cell_length_c       6.1199103321121
_cell_angle_alpha    90.0
_cell_angle_beta     90.0
_cell_angle_gamma    90.0

_space_group_name_H-M_alt    "P 1"
_space_group_IT_number       1

loop_
  _space_group_symop_operation_xyz
  'x, y, z'

loop_
  _atom_site_type_symbol
  _atom_site_label
  _atom_site_symmetry_multiplicity
  _atom_site_fract_x
  _atom_site_fract_y
  _atom_site_fract_z
  _atom_site_occupancy
  Ag  Ag1       1.0  0.9999999994787163  0.49999999935764583  0.24992374484990798  1.0000
  Ag  Ag2       1.0  1.3179460160120914e-09  0.5000000004747374  0.7500762550519045  1.0000
  Ag  Ag3       1.0  0.7500762547417034  2.8356065616769675e-11  0.49999999868173733  1.0000
  Ag  Ag4       1.0  0.49999999969705433  0.24992374427751154  1.474341799866771e-09  1.0000
  Ag  Ag5       1.0  0.2499237463822509  3.733604973469041e-11  0.5000000015494754  1.0000
  Ag  Ag6       1.0  0.499999999978529  0.7500762544324533  0.999999998360502  1.0000
  P   P1        1.0  0.499999998999152  0.5000000006182199  0.49999999954063873  1.0000
  P   P2        1.0  0.9999999992838153  2.3983052811355922e-09  2.978403281896504e-10  1.0000
  O   O1        1.0  0.8520947105105684  0.8520947107002971  0.8520947113692745  1.0000
  O   O2        1.0  0.6487772056338532  0.3512227934886826  0.648777205456198  1.0000
  O   O3        1.0  0.35122279565229303  0.6487772052987344  0.6487772049453735  1.0000
  O   O4        1.0  0.6487772075632605  0.6487772070077136  0.3512227948008811  1.0000
  O   O5        1.0  0.3512227951231186  0.35122279660274786  0.35122279377176474  1.0000
  O   O6        1.0  0.1479052884016998  0.1479052882407121  0.8520947109969489  1.0000
  O   O7        1.0  0.1479052887134266  0.8520947105185459  0.14790528906719608  1.0000
  O   O8        1.0  0.8520947111274239  0.14790528911834916  0.14790528915974482  1.0000
